@<TRIPOS>MOLECULE
FBTK_System
 3020  3010     1     0     0
SMALL
USER_CHARGES

@<TRIPOS>ATOM
      1 H           10.0030    30.6806    47.7690 H            1 RES          0.0000
      2 C           10.1379    31.0412    46.7249 C            1 RES          0.0000
      3 C            9.4178    30.1041    45.7523 C            1 RES          0.0000
      4 H           11.2254    31.0733    46.5034 H            1 RES          0.0000
      5 H            9.7258    32.0697    46.6537 H            1 RES          0.0000
      6 H            9.8465    29.0865    45.8746 H            1 RES          0.0000
      7 H            8.3411    30.0867    46.0255 H            1 RES          0.0000
      8 C            9.5691    30.5534    44.2841 C            1 RES          0.0000
      9 C            8.8361    29.5979    43.3051 C            1 RES          0.0000
     10 H           10.6524    30.5771    44.0360 H            1 RES          0.0000
     11 H            9.1472    31.5771    44.1869 H            1 RES          0.0000
     12 H            9.2673    28.5819    43.4350 H            1 RES          0.0000
     13 H            7.7610    29.5827    43.5860 H            1 RES          0.0000
     14 C            8.9616    30.0128    41.8059 C            1 RES          0.0000
     15 C            8.2187    29.0439    40.8177 C            1 RES          0.0000
     16 H           10.0424    30.0337    41.5479 H            1 RES          0.0000
     17 H            8.5366    31.0342    41.6989 H            1 RES          0.0000
     18 H            8.6527    28.0305    40.9562 H            1 RES          0.0000
     19 H            7.1460    29.0316    41.1072 H            1 RES          0.0000
     20 C            8.3227    29.4310    39.2898 C            1 RES          0.0000
     21 C            7.5724    28.4534    38.2864 C            1 RES          0.0000
     22 H            9.4013    29.4489    39.0242 H            1 RES          0.0000
     23 H            7.8948    30.4499    39.1752 H            1 RES          0.0000
     24 H            8.0080    27.4416    38.4274 H            1 RES          0.0000
     25 H            6.5010    28.4429    38.5785 H            1 RES          0.0000
     26 C            7.6617    28.8219    36.7345 C            1 RES          0.0000
     27 C            6.9056    27.8378    35.7153 C            1 RES          0.0000
     28 H            8.7382    28.8368    36.4633 H            1 RES          0.0000
     29 H            7.2312    29.8382    36.6144 H            1 RES          0.0000
     30 H            7.3426    26.8275    35.8574 H            1 RES          0.0000
     31 H            5.8351    27.8291    36.0086 H            1 RES          0.0000
     32 C            6.9843    28.1936    34.1430 C            1 RES          0.0000
     33 C            6.2234    27.2051    33.1058 C            1 RES          0.0000
     34 H            8.0599    28.2069    33.8706 H            1 RES          0.0000
     35 H            6.5525    29.2085    34.0218 H            1 RES          0.0000
     36 H            6.6618    26.1963    33.2498 H            1 RES          0.0000
     37 H            5.1541    27.1982    33.4010 H            1 RES          0.0000
     38 C            6.2926    27.5494    31.5137 C            1 RES          0.0000
     39 C            5.5288    26.5599    30.4549 C            1 RES          0.0000
     40 H            7.3676    27.5613    31.2410 H            1 RES          0.0000
     41 H            5.8596    28.5634    31.3922 H            1 RES          0.0000
     42 H            5.9677    25.5513    30.5981 H            1 RES          0.0000
     43 H            4.4594    26.5536    30.7494 H            1 RES          0.0000
     44 C            5.5894    26.8940    28.8450 C            1 RES          0.0000
     45 C            4.8239    25.9050    27.7657 C            1 RES          0.0000
     46 H            6.6643    26.9052    28.5708 H            1 RES          0.0000
     47 H            5.1557    27.9077    28.7221 H            1 RES          0.0000
     48 H            5.2625    24.8956    27.9073 H            1 RES          0.0000
     49 H            3.7536    25.8984    28.0586 H            1 RES          0.0000
     50 C            4.8768    26.2298    26.1405 C            1 RES          0.0000
     51 C            4.1101    25.2417    25.0434 C            1 RES          0.0000
     52 H            5.9516    26.2405    25.8645 H            1 RES          0.0000
     53 H            4.4425    27.2434    26.0159 H            1 RES          0.0000
     54 H            4.5486    24.2318    25.1839 H            1 RES          0.0000
     55 H            3.0392    25.2349    25.3353 H            1 RES          0.0000
     56 C            4.1564    25.5586    23.4052 C            1 RES          0.0000
     57 C            3.3886    24.5713    22.2921 C            1 RES          0.0000
     58 H            5.2314    25.5691    23.1286 H            1 RES          0.0000
     59 H            3.7217    26.5723    23.2800 H            1 RES          0.0000
     60 H            3.8270    23.5609    22.4314 H            1 RES          0.0000
     61 H            2.3172    24.5643    22.5828 H            1 RES          0.0000
     62 C            3.4297    24.8821    20.6425 C            1 RES          0.0000
     63 C            2.6606    23.8947    19.5163 C            1 RES          0.0000
     64 H            4.5044    24.8919    20.3648 H            1 RES          0.0000
     65 H            2.9945    25.8954    20.5162 H            1 RES          0.0000
     66 H            3.0991    22.8843    19.6541 H            1 RES          0.0000
     67 H            1.5889    23.8880    19.8055 H            1 RES          0.0000
     68 C            2.6976    24.2007    17.8570 C            1 RES          0.0000
     69 C            1.9273    23.2131    16.7206 C            1 RES          0.0000
     70 H            3.7719    24.2098    17.5782 H            1 RES          0.0000
     71 H            2.2616    25.2135    17.7296 H            1 RES          0.0000
     72 H            2.3657    22.2026    16.8569 H            1 RES          0.0000
     73 H            0.8553    23.2064    17.0083 H            1 RES          0.0000
     74 C            1.9610    23.5154    15.0539 C            1 RES          0.0000
     75 C            1.1898    22.5276    13.9099 C            1 RES          0.0000
     76 H            3.0349    23.5238    14.7737 H            1 RES          0.0000
     77 H            1.5244    24.5277    14.9252 H            1 RES          0.0000
     78 H            1.6281    21.5169    14.0447 H            1 RES          0.0000
     79 H            0.1175    22.5208    14.1962 H            1 RES          0.0000
     80 C            1.2214    22.8274    12.2379 C            1 RES          0.0000
     81 C            0.4495    21.8393    11.0891 C            1 RES          0.0000
     82 H            2.2949    22.8352    11.9567 H            1 RES          0.0000
     83 H            0.7843    23.8392    12.1081 H            1 RES          0.0000
     84 H            0.8877    20.8285    11.2226 H            1 RES          0.0000
     85 H           60.9342    21.8325    11.3741 H            1 RES          0.0000
     86 C            0.4797    22.1376     9.4139 C            1 RES          0.0000
     87 C           61.2648    21.1493     8.2625 C            1 RES          0.0000
     88 H            1.5529    22.1449     9.1314 H            1 RES          0.0000
     89 H            0.0422    23.1489     9.2829 H            1 RES          0.0000
     90 H            0.1455    20.1383     8.3948 H            1 RES          0.0000
     91 H           60.1920    21.1423     8.5463 H            1 RES          0.0000
     92 C           61.2946    21.4471     6.5863 C            1 RES          0.0000
     93 C           60.5224    20.4589     5.4350 C            1 RES          0.0000
     94 H            0.8101    21.4542     6.3026 H            1 RES          0.0000
     95 H           60.8566    22.4581     6.4541 H            1 RES          0.0000
     96 H           60.9600    19.4475     5.5659 H            1 RES          0.0000
     97 H           59.4493    20.4515     5.7174 H            1 RES          0.0000
     98 C           60.5526    20.7572     3.7598 C            1 RES          0.0000
     99 C           59.7808    19.7691     2.6109 C            1 RES          0.0000
    100 H            0.0679    20.7640     3.4748 H            1 RES          0.0000
    101 H           60.1144    21.7680     3.6263 H            1 RES          0.0000
    102 H           60.2179    18.7573     2.7407 H            1 RES          0.0000
    103 H           58.7073    19.7612     2.8922 H            1 RES          0.0000
    104 C           59.8124    20.0689     0.9390 C            1 RES          0.0000
    105 C           59.0412    19.0811    61.3523 C            1 RES          0.0000
    106 H           60.8846    20.0757     0.6527 H            1 RES          0.0000
    107 H           59.3740    21.0796     0.8042 H            1 RES          0.0000
    108 H           59.4778    18.0688    61.4809 H            1 RES          0.0000
    109 H           57.9673    19.0726     0.0752 H            1 RES          0.0000
    110 C           59.0749    19.3834    59.6856 C            1 RES          0.0000
    111 C           58.3047    18.3958    58.5491 C            1 RES          0.0000
    112 H           60.1469    19.3902    59.3978 H            1 RES          0.0000
    113 H           58.6364    20.3939    59.5493 H            1 RES          0.0000
    114 H           58.7407    17.3830    58.6765 H            1 RES          0.0000
    115 H           57.2304    18.3866    58.8280 H            1 RES          0.0000
    116 C           58.3416    18.7018    56.8899 C            1 RES          0.0000
    117 C           57.5726    17.7144    55.7637 C            1 RES          0.0000
    118 H           59.4133    18.7086    56.6007 H            1 RES          0.0000
    119 H           57.9031    19.7121    56.7521 H            1 RES          0.0000
    120 H           58.0080    16.7011    55.8900 H            1 RES          0.0000
    121 H           56.4979    17.7044    56.0415 H            1 RES          0.0000
    122 C           57.6137    18.0252    54.1141 C            1 RES          0.0000
    123 C           56.8460    17.0378    53.0011 C            1 RES          0.0000
    124 H           58.6851    18.0323    53.8234 H            1 RES          0.0000
    125 H           57.1752    19.0355    53.9749 H            1 RES          0.0000
    126 H           57.2807    16.0241    53.1263 H            1 RES          0.0000
    127 H           55.7710    17.0273    53.2777 H            1 RES          0.0000
    128 C           56.8923    17.3547    51.3629 C            1 RES          0.0000
    129 C           56.1257    16.3666    50.2658 C            1 RES          0.0000
    130 H           57.9631    17.3617    51.0710 H            1 RES          0.0000
    131 H           56.4536    18.3646    51.2224 H            1 RES          0.0000
    132 H           56.5601    15.3530    50.3904 H            1 RES          0.0000
    133 H           55.0508    16.3558    50.5418 H            1 RES          0.0000
    134 C           56.1785    16.6915    48.6407 C            1 RES          0.0000
    135 C           55.4131    15.7024    47.5614 C            1 RES          0.0000
    136 H           57.2487    16.6982    48.3478 H            1 RES          0.0000
    137 H           55.7398    17.7008    48.4991 H            1 RES          0.0000
    138 H           55.8469    14.6888    47.6843 H            1 RES          0.0000
    139 H           54.3382    15.6911    47.8356 H            1 RES          0.0000
    140 C           55.4736    16.0366    45.9515 C            1 RES          0.0000
    141 C           54.7099    15.0470    44.8928 C            1 RES          0.0000
    142 H           56.5430    16.0430    45.6570 H            1 RES          0.0000
    143 H           55.0346    17.0451    45.8084 H            1 RES          0.0000
    144 H           55.1430    14.0331    45.0142 H            1 RES          0.0000
    145 H           53.6349    15.0350    45.1655 H            1 RES          0.0000
    146 C           54.7790    15.3914    43.3007 C            1 RES          0.0000
    147 C           54.0182    14.4028    42.2636 C            1 RES          0.0000
    148 H           55.8483    15.3984    43.0055 H            1 RES          0.0000
    149 H           54.3404    16.4001    43.1568 H            1 RES          0.0000
    150 H           54.4501    13.3879    42.3847 H            1 RES          0.0000
    151 H           52.9426    14.3894    42.5360 H            1 RES          0.0000
    152 C           54.0968    14.7587    40.6912 C            1 RES          0.0000
    153 C           53.3408    13.7746    39.6721 C            1 RES          0.0000
    154 H           55.1672    14.7675    40.3979 H            1 RES          0.0000
    155 H           53.6597    15.7690    40.5492 H            1 RES          0.0000
    156 H           53.7713    12.7583    39.7921 H            1 RES          0.0000
    157 H           52.2643    13.7595    39.9434 H            1 RES          0.0000
    158 C           53.4299    14.1432    38.1202 C            1 RES          0.0000
    159 C           52.6797    13.1656    37.1168 C            1 RES          0.0000
    160 H           54.5013    14.1538    37.8281 H            1 RES          0.0000
    161 H           52.9942    15.1550    37.9794 H            1 RES          0.0000
    162 H           53.1077    12.1468    37.2312 H            1 RES          0.0000
    163 H           51.6012    13.1476    37.3824 H            1 RES          0.0000
    164 C           52.7837    13.5529    35.5889 C            1 RES          0.0000
    165 C           52.0409    12.5841    34.6006 C            1 RES          0.0000
    166 H           53.8563    13.5653    35.2994 H            1 RES          0.0000
    167 H           52.3496    14.5663    35.4506 H            1 RES          0.0000
    168 H           52.4659    11.5628    34.7075 H            1 RES          0.0000
    169 H           50.9601    12.5631    34.8586 H            1 RES          0.0000
    170 C           52.1663    12.9994    33.1015 C            1 RES          0.0000
    171 C           51.4334    12.0441    32.1223 C            1 RES          0.0000
    172 H           53.2415    13.0147    32.8206 H            1 RES          0.0000
    173 H           51.7351    14.0154    32.9718 H            1 RES          0.0000
    174 H           51.8554    11.0203    32.2193 H            1 RES          0.0000
    175 H           50.3502    12.0202    32.3703 H            1 RES          0.0000
    176 C           51.5847    12.4937    30.6542 C            1 RES          0.0000
    177 C           50.8647    11.5568    29.6814 C            1 RES          0.0000
    178 H           50.9996    11.9177    28.6373 H            1 RES          0.0000
    179 H           52.6615    12.5112    30.3810 H            1 RES          0.0000
    180 H           51.1560    13.5113    30.5322 H            1 RES          0.0000
    181 H           51.2769    10.5283    29.7523 H            1 RES          0.0000
    182 H           49.7772    11.5246    29.9028 H            1 RES          0.0000
    183 H           52.9464    27.9715    29.2749 H            1 RES          0.0000
    184 C           53.2682    27.3170    28.4343 C            1 RES          0.0000
    185 C           54.0959    26.1470    28.9715 C            1 RES          0.0000
    186 H           53.8675    27.9265    27.7257 H            1 RES          0.0000
    187 H           52.3612    26.9465    27.9121 H            1 RES          0.0000
    188 H           54.9773    26.5651    29.5031 H            1 RES          0.0000
    189 H           53.4652    25.5813    29.6902 H            1 RES          0.0000
    190 C           54.5724    25.2012    27.8495 C            1 RES          0.0000
    191 C           55.4107    24.0180    28.4030 C            1 RES          0.0000
    192 H           55.1891    25.7891    27.1357 H            1 RES          0.0000
    193 H           53.6772    24.8055    27.3227 H            1 RES          0.0000
    194 H           56.2883    24.4433    28.9359 H            1 RES          0.0000
    195 H           54.7753    23.4589    29.1232 H            1 RES          0.0000
    196 C           55.9155    23.0329    27.3027 C            1 RES          0.0000
    197 C           56.7636    21.8365    27.8660 C            1 RES          0.0000
    198 H           56.5380    23.6122    26.5872 H            1 RES          0.0000
    199 H           55.0255    22.6281    26.7743 H            1 RES          0.0000
    200 H           57.6364    22.2699    28.3999 H            1 RES          0.0000
    201 H           56.1229    21.2852    28.5872 H            1 RES          0.0000
    202 C           57.2930    20.8167    26.7818 C            1 RES          0.0000
    203 C           58.1516    19.6046    27.3473 C            1 RES          0.0000
    204 H           57.9204    21.3891    26.0657 H            1 RES          0.0000
    205 H           56.4072    20.4046    26.2529 H            1 RES          0.0000
    206 H           59.0227    20.0407    27.8806 H            1 RES          0.0000
    207 H           57.5089    19.0558    28.0678 H            1 RES          0.0000
    208 C           58.6996    18.5578    26.2717 C            1 RES          0.0000
    209 C           59.5680    17.3304    26.8368 C            1 RES          0.0000
    210 H           59.3309    19.1249    25.5558 H            1 RES          0.0000
    211 H           57.8172    18.1400    25.7431 H            1 RES          0.0000
    212 H           60.4381    17.7683    27.3688 H            1 RES          0.0000
    213 H           58.9239    16.7831    27.5561 H            1 RES          0.0000
    214 C           60.1306    16.2620    25.7651 C            1 RES          0.0000
    215 C           61.0092    15.0184    26.3267 C            1 RES          0.0000
    216 H           60.7633    16.8277    25.0504 H            1 RES          0.0000
    217 H           59.2491    15.8425    25.2377 H            1 RES          0.0000
    218 H            0.3206    15.4587    26.8579 H            1 RES          0.0000
    219 H           60.3633    14.4733    27.0452 H            1 RES          0.0000
    220 C            0.0283    13.9294    25.2582 C            1 RES          0.0000
    221 C            0.9171    12.6684    25.8110 C            1 RES          0.0000
    222 H            0.6619    14.4946    24.5445 H            1 RES          0.0000
    223 H           60.7043    13.5090    24.7318 H            1 RES          0.0000
    224 H            1.7862    13.1085    26.3414 H            1 RES          0.0000
    225 H            0.2711    12.1227    26.5288 H            1 RES          0.0000
    226 C            1.5059    11.5608    24.7452 C            1 RES          0.0000
    227 C            2.4040    10.2837    25.2881 C            1 RES          0.0000
    228 H            2.1407    12.1249    24.0313 H            1 RES          0.0000
    229 H            0.6252    11.1389    24.2187 H            1 RES          0.0000
    230 H            3.2743    10.7225    25.8184 H            1 RES          0.0000
    231 H            1.7586     9.7364    26.0058 H            1 RES          0.0000
    232 C            3.0038     9.1597    24.2252 C            1 RES          0.0000
    233 C            3.9097     7.8688    24.7590 C            1 RES          0.0000
    234 H            3.6397     9.7226    23.5108 H            1 RES          0.0000
    235 H            2.1237     8.7362    23.6983 H            1 RES          0.0000
    236 H            4.7809     8.3070    25.2891 H            1 RES          0.0000
    237 H            3.2646     7.3204    25.4766 H            1 RES          0.0000
    238 C            4.5191     6.7307    23.6985 C            1 RES          0.0000
    239 C            5.4322     5.4271    24.2241 C            1 RES          0.0000
    240 H            5.1555     7.2933    22.9839 H            1 RES          0.0000
    241 H            3.6389     6.3066    23.1714 H            1 RES          0.0000
    242 H            6.3042     5.8644    24.7540 H            1 RES          0.0000
    243 H            4.7874     4.8776    24.9416 H            1 RES          0.0000
    244 C            6.0498     4.2765    23.1649 C            1 RES          0.0000
    245 C            6.9693     2.9619    23.6841 C            1 RES          0.0000
    246 H            6.6870     4.8385    22.4504 H            1 RES          0.0000
    247 H            5.1700     3.8515    22.6380 H            1 RES          0.0000
    248 H            7.8420     3.3985    24.2134 H            1 RES          0.0000
    249 H            6.3249     2.4114    24.4010 H            1 RES          0.0000
    250 C            7.5939     1.8007    22.6258 C            1 RES          0.0000
    251 C            8.5189     0.4768    23.1400 C            1 RES          0.0000
    252 H            8.2320     2.3617    21.9114 H            1 RES          0.0000
    253 H            6.7147     1.3746    22.0991 H            1 RES          0.0000
    254 H            9.3923     0.9124    23.6686 H            1 RES          0.0000
    255 H            7.8749    61.4824    23.8562 H            1 RES          0.0000
    256 C            9.1494    60.8639    22.0823 C            1 RES          0.0000
    257 C           10.0787    59.5325    22.5926 C            1 RES          0.0000
    258 H            9.7882    61.4240    21.3681 H            1 RES          0.0000
    259 H            8.2707    60.4367    21.5557 H            1 RES          0.0000
    260 H           10.9528    59.9672    23.1205 H            1 RES          0.0000
    261 H            9.4352    58.9798    23.3082 H            1 RES          0.0000
    262 C           10.7138    58.3553    21.5351 C            1 RES          0.0000
    263 C           11.6467    57.0179    22.0428 C            1 RES          0.0000
    264 H           11.3535    58.9145    20.8212 H            1 RES          0.0000
    265 H            9.8357    57.9270    21.0089 H            1 RES          0.0000
    266 H           12.5213    57.4521    22.5700 H            1 RES          0.0000
    267 H           11.0034    56.4646    22.7577 H            1 RES          0.0000
    268 C           12.2854    55.8352    20.9852 C            1 RES          0.0000
    269 C           13.2212    54.4930    21.4906 C            1 RES          0.0000
    270 H           12.9255    56.3939    20.2716 H            1 RES          0.0000
    271 H           11.4076    55.4063    20.4593 H            1 RES          0.0000
    272 H           14.0961    54.9268    22.0174 H            1 RES          0.0000
    273 H           12.5781    53.9391    22.2052 H            1 RES          0.0000
    274 C           13.8629    53.3058    20.4333 C            1 RES          0.0000
    275 C           14.8009    51.9598    20.9367 C            1 RES          0.0000
    276 H           14.5034    53.8639    19.7198 H            1 RES          0.0000
    277 H           12.9854    52.8763    19.9076 H            1 RES          0.0000
    278 H           15.6761    52.3931    21.4632 H            1 RES          0.0000
    279 H           14.1580    51.4054    21.6510 H            1 RES          0.0000
    280 C           15.4448    50.7691    19.8798 C            1 RES          0.0000
    281 C           16.3844    49.4205    20.3815 C            1 RES          0.0000
    282 H           16.0857    51.3268    19.1661 H            1 RES          0.0000
    283 H           14.5676    50.3390    19.3540 H            1 RES          0.0000
    284 H           17.2600    49.8532    20.9079 H            1 RES          0.0000
    285 H           15.7418    48.8655    21.0957 H            1 RES          0.0000
    286 C           17.0300    48.2273    19.3250 C            1 RES          0.0000
    287 C           17.9707    46.8767    19.8255 C            1 RES          0.0000
    288 H           17.6713    48.7844    18.6112 H            1 RES          0.0000
    289 H           16.1531    47.7966    18.7991 H            1 RES          0.0000
    290 H           18.8466    47.3090    20.3518 H            1 RES          0.0000
    291 H           17.3284    46.3212    20.5396 H            1 RES          0.0000
    292 C           18.6175    45.6818    18.7693 C            1 RES          0.0000
    293 C           19.5588    44.3300    19.2690 C            1 RES          0.0000
    294 H           19.2589    46.2386    18.0554 H            1 RES          0.0000
    295 H           17.7407    45.2508    18.2433 H            1 RES          0.0000
    296 H           20.4350    44.7621    19.7952 H            1 RES          0.0000
    297 H           18.9167    43.7742    19.9831 H            1 RES          0.0000
    298 C           20.2062    43.1342    18.2130 C            1 RES          0.0000
    299 C           21.1480    41.7818    18.7123 C            1 RES          0.0000
    300 H           20.8479    43.6907    17.4990 H            1 RES          0.0000
    301 H           19.3296    42.7028    17.6869 H            1 RES          0.0000
    302 H           22.0243    42.2136    19.2384 H            1 RES          0.0000
    303 H           20.5061    41.2257    19.4263 H            1 RES          0.0000
    304 C           21.7956    40.5857    17.6563 C            1 RES          0.0000
    305 C           22.7373    39.2333    18.1556 C            1 RES          0.0000
    306 H           22.4375    41.1418    16.9422 H            1 RES          0.0000
    307 H           20.9192    40.1539    17.1302 H            1 RES          0.0000
    308 H           23.6139    39.6647    18.6817 H            1 RES          0.0000
    309 H           22.0956    38.6768    18.8696 H            1 RES          0.0000
    310 C           23.3847    38.0375    17.0996 C            1 RES          0.0000
    311 C           24.3261    36.6857    17.5993 C            1 RES          0.0000
    312 H           24.0268    38.5933    16.3855 H            1 RES          0.0000
    313 H           22.5085    37.6054    16.5734 H            1 RES          0.0000
    314 H           25.2028    37.1168    18.1253 H            1 RES          0.0000
    315 H           23.6846    36.1289    18.3133 H            1 RES          0.0000
    316 C           24.9728    35.4908    16.5432 C            1 RES          0.0000
    317 C           25.9135    34.1403    17.0436 C            1 RES          0.0000
    318 H           25.6151    36.0463    15.8289 H            1 RES          0.0000
    319 H           24.0968    35.0584    16.0169 H            1 RES          0.0000
    320 H           26.7905    34.5709    17.5695 H            1 RES          0.0000
    321 H           25.2723    33.5831    17.7575 H            1 RES          0.0000
    322 C           26.5591    32.9470    15.9872 C            1 RES          0.0000
    323 C           27.4987    31.5984    16.4889 C            1 RES          0.0000
    324 H           27.2016    33.5020    15.2729 H            1 RES          0.0000
    325 H           25.6834    32.5142    15.4608 H            1 RES          0.0000
    326 H           28.3759    32.0285    17.0146 H            1 RES          0.0000
    327 H           26.8578    31.0408    17.2026 H            1 RES          0.0000
    328 C           28.1426    30.4077    15.4320 C            1 RES          0.0000
    329 C           29.0806    29.0618    15.9354 C            1 RES          0.0000
    330 H           28.7854    30.9621    14.7176 H            1 RES          0.0000
    331 H           27.2673    29.9744    14.9056 H            1 RES          0.0000
    332 H           29.9581    29.4913    16.4611 H            1 RES          0.0000
    333 H           28.4401    28.5037    16.6490 H            1 RES          0.0000
    334 C           29.7222    27.8745    14.8781 C            1 RES          0.0000
    335 C           30.6580    26.5324    15.3836 C            1 RES          0.0000
    336 H           30.3652    28.4284    14.1635 H            1 RES          0.0000
    337 H           28.8473    27.4407    14.3514 H            1 RES          0.0000
    338 H           31.5359    26.9613    15.9093 H            1 RES          0.0000
    339 H           30.0180    25.9737    16.0973 H            1 RES          0.0000
    340 C           31.2967    25.3496    14.3260 C            1 RES          0.0000
    341 C           32.2296    24.0123    14.8337 C            1 RES          0.0000
    342 H           31.9399    25.9029    13.6110 H            1 RES          0.0000
    343 H           30.4221    24.9154    13.7989 H            1 RES          0.0000
    344 H           33.1078    24.4407    15.3598 H            1 RES          0.0000
    345 H           31.5901    23.4532    15.5477 H            1 RES          0.0000
    346 C           32.8646    22.8351    13.7762 C            1 RES          0.0000
    347 C           33.7941    21.5038    14.2866 C            1 RES          0.0000
    348 H           33.5081    23.3877    13.0605 H            1 RES          0.0000
    349 H           31.9905    22.4003    13.2484 H            1 RES          0.0000
    350 H           34.6728    21.9311    14.8130 H            1 RES          0.0000
    351 H           33.1553    20.9437    15.0009 H            1 RES          0.0000
    352 C           34.4244    20.3336    13.2289 C            1 RES          0.0000
    353 C           35.3495    19.0098    13.7430 C            1 RES          0.0000
    354 H           35.0684    20.8852    12.5125 H            1 RES          0.0000
    355 H           33.5510    19.8979    12.7004 H            1 RES          0.0000
    356 H           36.2288    19.4360    14.2697 H            1 RES          0.0000
    357 H           34.7115    18.4488    14.4575 H            1 RES          0.0000
    358 C           35.9740    17.8485    12.6847 C            1 RES          0.0000
    359 C           36.8936    16.5340    13.2039 C            1 RES          0.0000
    360 H           36.6184    18.3990    11.9678 H            1 RES          0.0000
    361 H           35.1013    17.4119    12.1556 H            1 RES          0.0000
    362 H           37.7734    16.9591    13.7308 H            1 RES          0.0000
    363 H           36.2565    15.9721    13.9186 H            1 RES          0.0000
    364 C           37.5111    15.3834    12.1448 C            1 RES          0.0000
    365 C           38.4243    14.0799    12.6703 C            1 RES          0.0000
    366 H           38.1557    15.9329    11.4272 H            1 RES          0.0000
    367 H           36.6390    14.9460    11.6150 H            1 RES          0.0000
    368 H           39.3045    14.5040    13.1973 H            1 RES          0.0000
    369 H           37.7879    13.5173    13.3851 H            1 RES          0.0000
    370 C           39.0335    12.9417    11.6099 C            1 RES          0.0000
    371 C           39.9395    11.6509    12.1437 C            1 RES          0.0000
    372 H           39.6786    13.4901    10.8921 H            1 RES          0.0000
    373 H           38.1623    12.5036    11.0799 H            1 RES          0.0000
    374 H           40.8197    12.0745    12.6705 H            1 RES          0.0000
    375 H           39.3037    11.0881    12.8582 H            1 RES          0.0000
    376 C           40.5392    10.5269    11.0808 C            1 RES          0.0000
    377 C           41.4373     9.2499    11.6237 C            1 RES          0.0000
    378 H           41.1845    11.0742    10.3629 H            1 RES          0.0000
    379 H           39.6688    10.0880    10.5506 H            1 RES          0.0000
    380 H           42.3181     9.6719    12.1500 H            1 RES          0.0000
    381 H           40.8026     8.6859    12.3377 H            1 RES          0.0000
    382 C           42.0260     8.1423    10.5579 C            1 RES          0.0000
    383 C           42.9149     6.8814    11.1107 C            1 RES          0.0000
    384 H           42.6720     8.6880     9.8400 H            1 RES          0.0000
    385 H           41.1569     7.7021    10.0276 H            1 RES          0.0000
    386 H           43.7962     7.3018    11.6369 H            1 RES          0.0000
    387 H           42.2814     6.3162    11.8245 H            1 RES          0.0000
    388 C           43.4912     5.7923    10.0422 C            1 RES          0.0000
    389 C           44.3698     4.5489    10.6038 C            1 RES          0.0000
    390 H           44.1370     6.3374     9.3236 H            1 RES          0.0000
    391 H           42.6225     5.3520     9.5111 H            1 RES          0.0000
    392 H           45.2514     4.9684    11.1311 H            1 RES          0.0000
    393 H           43.7373     3.9832    11.3186 H            1 RES          0.0000
    394 C           44.9323     3.4805     9.5321 C            1 RES          0.0000
    395 C           45.8009     2.2532    10.0972 C            1 RES          0.0000
    396 H           45.5764     4.0277     8.8127 H            1 RES          0.0000
    397 H           44.0622     3.0425     9.0002 H            1 RES          0.0000
    398 H           46.6834     2.6710    10.6257 H            1 RES          0.0000
    399 H           45.1697     1.6861    10.8132 H            1 RES          0.0000
    400 C           46.3488     1.2064     9.0215 C            1 RES          0.0000
    401 C           47.2075    61.5516     9.5869 C            1 RES          0.0000
    402 H           46.9914     1.7552     8.3009 H            1 RES          0.0000
    403 H           45.4777     0.7702     8.4884 H            1 RES          0.0000
    404 H           48.0934     0.4065    10.1157 H            1 RES          0.0000
    405 H           46.5802    60.9791    10.3031 H            1 RES          0.0000
    406 C           47.7368    60.5318     8.5026 C            1 RES          0.0000
    407 C           48.5850    59.3355     9.0657 C            1 RES          0.0000
    408 H           48.3773    61.0832     7.7814 H            1 RES          0.0000
    409 H           46.8640    60.0985     7.9688 H            1 RES          0.0000
    410 H           49.4751    59.7403     9.5940 H            1 RES          0.0000
    411 H           47.9626    58.7561     9.7813 H            1 RES          0.0000
    412 C           49.0897    58.3505     7.9653 C            1 RES          0.0000
    413 C           49.9281    57.1673     8.5185 C            1 RES          0.0000
    414 H           49.7250    58.9097     7.2450 H            1 RES          0.0000
    415 H           48.2120    57.9252     7.4325 H            1 RES          0.0000
    416 H           50.8234    57.5630     9.0452 H            1 RES          0.0000
    417 H           49.3116    56.5793     9.2324 H            1 RES          0.0000
    418 C           50.4045    56.2216     7.3963 C            1 RES          0.0000
    419 C           51.2323    55.0517     7.9333 C            1 RES          0.0000
    420 H           51.5540    54.3973     7.0925 H            1 RES          0.0000
    421 H           51.0350    56.7875     6.6776 H            1 RES          0.0000
    422 H           49.5230    55.8035     6.8649 H            1 RES          0.0000
    423 H           52.1395    55.4222     8.4553 H            1 RES          0.0000
    424 H           50.6333    54.4420     8.6419 H            1 RES          0.0000
    425 H           34.1596    50.1194    10.4603 H            1 RES          0.0000
    426 C           34.9791    49.3724    10.3653 C            1 RES          0.0000
    427 C           36.3086    49.9999    10.7911 C            1 RES          0.0000
    428 H           35.0263    49.0371     9.3079 H            1 RES          0.0000
    429 H           34.7347    48.5010    11.0084 H            1 RES          0.0000
    430 H           36.4995    50.8774    10.1370 H            1 RES          0.0000
    431 H           36.2068    50.3392    11.8440 H            1 RES          0.0000
    432 C           37.4868    49.0098    10.6809 C            1 RES          0.0000
    433 C           38.8306    49.6541    11.1144 C            1 RES          0.0000
    434 H           37.5621    48.6729     9.6243 H            1 RES          0.0000
    435 H           37.2695    48.1348    11.3311 H            1 RES          0.0000
    436 H           39.0135    50.5325    10.4587 H            1 RES          0.0000
    437 H           38.7206    49.9940    12.1668 H            1 RES          0.0000
    438 C           40.0532    48.6886    11.0197 C            1 RES          0.0000
    439 C           41.4117    49.3436    11.4591 C            1 RES          0.0000
    440 H           40.1391    48.3511     9.9643 H            1 RES          0.0000
    441 H           39.8463    47.8128    11.6718 H            1 RES          0.0000
    442 H           41.5854    50.2223    10.8016 H            1 RES          0.0000
    443 H           41.2924    49.6836    12.5101 H            1 RES          0.0000
    444 C           42.6737    48.3969    11.3770 C            1 RES          0.0000
    445 C           44.0506    49.0555    11.8207 C            1 RES          0.0000
    446 H           42.7680    48.0596    10.3226 H            1 RES          0.0000
    447 H           42.4751    47.5210    12.0309 H            1 RES          0.0000
    448 H           44.2211    49.9333    11.1622 H            1 RES          0.0000
    449 H           43.9281    49.3945    12.8711 H            1 RES          0.0000
    450 C           45.3435    48.1195    11.7472 C            1 RES          0.0000
    451 C           46.7381    48.7792    12.1943 C            1 RES          0.0000
    452 H           45.4442    47.7832    10.6939 H            1 RES          0.0000
    453 H           45.1513    47.2444    12.4029 H            1 RES          0.0000
    454 H           46.9069    49.6558    11.5348 H            1 RES          0.0000
    455 H           46.6138    49.1169    13.2443 H            1 RES          0.0000
    456 C           48.0561    47.8492    12.1270 C            1 RES          0.0000
    457 C           49.4697    48.5070    12.5768 C            1 RES          0.0000
    458 H           48.1585    47.5142    11.0742 H            1 RES          0.0000
    459 H           47.8654    46.9752    12.7836 H            1 RES          0.0000
    460 H           49.6359    49.3826    11.9164 H            1 RES          0.0000
    461 H           49.3428    48.8435    13.6262 H            1 RES          0.0000
    462 C           50.8115    47.5819    12.5151 C            1 RES          0.0000
    463 C           52.2461    48.2329    12.9664 C            1 RES          0.0000
    464 H           50.9148    47.2481    11.4624 H            1 RES          0.0000
    465 H           50.6216    46.7089    13.1725 H            1 RES          0.0000
    466 H           52.4129    49.1080    12.3055 H            1 RES          0.0000
    467 H           52.1197    48.5687    14.0159 H            1 RES          0.0000
    468 C           53.6094    47.3121    12.9097 C            1 RES          0.0000
    469 C           55.0635    47.9552    13.3618 C            1 RES          0.0000
    470 H           53.7143    46.9785    11.8569 H            1 RES          0.0000
    471 H           53.4210    46.4390    13.5677 H            1 RES          0.0000
    472 H           55.2320    48.8305    12.7009 H            1 RES          0.0000
    473 H           54.9387    48.2909    14.4120 H            1 RES          0.0000
    474 C           56.4457    47.0388    13.3098 C            1 RES          0.0000
    475 C           57.9165    47.6743    13.7624 C            1 RES          0.0000
    476 H           56.5523    46.7049    12.2568 H            1 RES          0.0000
    477 H           56.2589    46.1652    13.9683 H            1 RES          0.0000
    478 H           58.0861    48.5497    13.1013 H            1 RES          0.0000
    479 H           57.7926    48.0099    14.8131 H            1 RES          0.0000
    480 C           59.3151    46.7616    13.7143 C            1 RES          0.0000
    481 C           60.8012    47.3905    14.1674 C            1 RES          0.0000
    482 H           59.4222    46.4277    12.6611 H            1 RES          0.0000
    483 H           59.1287    45.8878    14.3732 H            1 RES          0.0000
    484 H           60.9720    48.2658    13.5063 H            1 RES          0.0000
    485 H           60.6784    47.7259    15.2185 H            1 RES          0.0000
    486 C            0.6569    46.4802    14.1226 C            1 RES          0.0000
    487 C            2.1563    47.1040    14.5764 C            1 RES          0.0000
    488 H            0.7651    46.1465    13.0694 H            1 RES          0.0000
    489 H            0.4715    45.6065    14.7819 H            1 RES          0.0000
    490 H            2.3282    47.9788    13.9150 H            1 RES          0.0000
    491 H            2.0346    47.4387    15.6277 H            1 RES          0.0000
    492 C            3.5817    46.1955    14.5343 C            1 RES          0.0000
    493 C            5.0923    46.8153    14.9887 C            1 RES          0.0000
    494 H            3.6910    45.8622    13.4811 H            1 RES          0.0000
    495 H            3.3974    45.3220    15.1940 H            1 RES          0.0000
    496 H            5.2654    47.6897    14.3272 H            1 RES          0.0000
    497 H            4.9718    47.1495    16.0403 H            1 RES          0.0000
    498 C            6.5280    45.9082    14.9488 C            1 RES          0.0000
    499 C            8.0476    46.5250    15.4039 C            1 RES          0.0000
    500 H            6.6385    45.5752    13.8958 H            1 RES          0.0000
    501 H            6.3448    45.0350    15.6090 H            1 RES          0.0000
    502 H            8.2219    47.3989    14.7423 H            1 RES          0.0000
    503 H            7.9282    46.8587    16.4556 H            1 RES          0.0000
    504 C            9.4915    45.6189    15.3657 C            1 RES          0.0000
    505 C           11.0183    46.2337    15.8213 C            1 RES          0.0000
    506 H            9.6033    45.2863    14.3129 H            1 RES          0.0000
    507 H            9.3095    44.7460    16.0263 H            1 RES          0.0000
    508 H           11.1934    47.1070    15.1596 H            1 RES          0.0000
    509 H           10.8996    46.5667    16.8731 H            1 RES          0.0000
    510 C           12.4686    45.3280    15.7844 C            1 RES          0.0000
    511 C           14.0012    45.9411    16.2404 C            1 RES          0.0000
    512 H           12.5810    44.9957    14.7317 H            1 RES          0.0000
    513 H           12.2872    44.4554    16.4453 H            1 RES          0.0000
    514 H           14.1769    46.8141    15.5786 H            1 RES          0.0000
    515 H           13.8831    46.2737    17.2923 H            1 RES          0.0000
    516 C           15.4568    45.0360    16.2046 C            1 RES          0.0000
    517 C           16.9938    45.6475    16.6609 C            1 RES          0.0000
    518 H           15.5698    44.7040    15.1521 H            1 RES          0.0000
    519 H           15.2760    44.1636    16.8658 H            1 RES          0.0000
    520 H           17.1702    46.5204    15.9991 H            1 RES          0.0000
    521 H           16.8764    45.9800    17.7129 H            1 RES          0.0000
    522 C           18.4535    44.7432    16.6260 C            1 RES          0.0000
    523 C           19.9939    45.3534    17.0825 C            1 RES          0.0000
    524 H           18.5671    44.4111    15.5735 H            1 RES          0.0000
    525 H           18.2733    43.8708    17.2874 H            1 RES          0.0000
    526 H           20.1709    46.2262    16.4206 H            1 RES          0.0000
    527 H           19.8771    45.6858    18.1346 H            1 RES          0.0000
    528 C           21.4564    44.4497    17.0483 C            1 RES          0.0000
    529 C           22.9991    45.0589    17.5048 C            1 RES          0.0000
    530 H           21.5706    44.1175    15.9958 H            1 RES          0.0000
    531 H           21.2768    43.5772    17.7098 H            1 RES          0.0000
    532 H           23.1766    45.9316    16.8430 H            1 RES          0.0000
    533 H           22.8828    45.3912    18.5570 H            1 RES          0.0000
    534 C           24.4635    44.1556    17.4711 C            1 RES          0.0000
    535 C           26.0077    44.7642    17.9276 C            1 RES          0.0000
    536 H           24.5782    43.8234    16.4186 H            1 RES          0.0000
    537 H           24.2844    43.2830    18.1326 H            1 RES          0.0000
    538 H           26.1856    45.6369    17.2658 H            1 RES          0.0000
    539 H           25.8918    45.0965    18.9799 H            1 RES          0.0000
    540 C           27.4732    43.8612    17.8942 C            1 RES          0.0000
    541 C           29.0181    44.4694    18.3507 C            1 RES          0.0000
    542 H           27.5883    43.5289    16.8417 H            1 RES          0.0000
    543 H           27.2945    42.9885    18.5558 H            1 RES          0.0000
    544 H           29.1964    45.3421    17.6890 H            1 RES          0.0000
    545 H           28.9026    44.8017    19.4031 H            1 RES          0.0000
    546 C           30.4840    43.5665    18.3174 C            1 RES          0.0000
    547 C           32.0289    44.1747    18.7739 C            1 RES          0.0000
    548 H           30.5995    43.2341    17.2650 H            1 RES          0.0000
    549 H           30.3057    42.6938    18.9791 H            1 RES          0.0000
    550 H           32.2076    45.0473    18.1122 H            1 RES          0.0000
    551 H           31.9138    44.5070    19.8263 H            1 RES          0.0000
    552 C           33.4944    43.2717    18.7405 C            1 RES          0.0000
    553 C           35.0386    43.8803    19.1970 C            1 RES          0.0000
    554 H           33.6103    42.9393    17.6882 H            1 RES          0.0000
    555 H           33.3165    42.3990    19.4023 H            1 RES          0.0000
    556 H           35.2177    44.7528    18.5354 H            1 RES          0.0000
    557 H           34.9239    44.2126    20.2495 H            1 RES          0.0000
    558 C           36.5030    42.9770    19.1633 C            1 RES          0.0000
    559 C           38.0457    43.5862    19.6198 C            1 RES          0.0000
    560 H           36.6193    42.6446    18.1111 H            1 RES          0.0000
    561 H           36.3254    42.1043    19.8252 H            1 RES          0.0000
    562 H           38.2253    44.4587    18.9583 H            1 RES          0.0000
    563 H           37.9314    43.9184    20.6723 H            1 RES          0.0000
    564 C           39.5082    42.6825    19.5857 C            1 RES          0.0000
    565 C           41.0486    43.2927    20.0421 C            1 RES          0.0000
    566 H           39.6250    42.3500    18.5336 H            1 RES          0.0000
    567 H           39.3312    41.8098    20.2476 H            1 RES          0.0000
    568 H           41.2287    44.1651    19.3807 H            1 RES          0.0000
    569 H           40.9349    43.6249    21.0946 H            1 RES          0.0000
    570 C           42.5082    42.3884    20.0073 C            1 RES          0.0000
    571 C           44.0452    42.9999    20.4635 C            1 RES          0.0000
    572 H           42.6256    42.0558    18.9553 H            1 RES          0.0000
    573 H           42.3318    41.5156    20.6692 H            1 RES          0.0000
    574 H           44.2260    43.8723    19.8023 H            1 RES          0.0000
    575 H           43.9322    43.3321    21.5160 H            1 RES          0.0000
    576 C           45.5008    42.0949    20.4278 C            1 RES          0.0000
    577 C           47.0333    42.7080    20.8838 C            1 RES          0.0000
    578 H           45.6188    41.7621    19.3760 H            1 RES          0.0000
    579 H           45.3250    41.2220    21.0897 H            1 RES          0.0000
    580 H           47.2148    43.5805    20.2228 H            1 RES          0.0000
    581 H           46.9210    43.0404    21.9364 H            1 RES          0.0000
    582 C           48.4837    41.8023    20.8469 C            1 RES          0.0000
    583 C           50.0104    42.4172    21.3025 C            1 RES          0.0000
    584 H           48.6023    41.4692    19.7952 H            1 RES          0.0000
    585 H           48.3085    40.9290    21.5087 H            1 RES          0.0000
    586 H           50.1924    43.2900    20.6417 H            1 RES          0.0000
    587 H           49.8987    42.7499    22.3552 H            1 RES          0.0000
    588 C           51.4542    41.5110    21.2643 C            1 RES          0.0000
    589 C           52.9739    42.1278    21.7193 C            1 RES          0.0000
    590 H           51.5737    41.1772    20.2127 H            1 RES          0.0000
    591 H           51.2799    40.6372    21.9260 H            1 RES          0.0000
    592 H           53.1570    43.0010    21.0590 H            1 RES          0.0000
    593 H           52.8633    42.4610    22.7722 H            1 RES          0.0000
    594 C           54.4095    41.2208    21.6795 C            1 RES          0.0000
    595 C           55.9201    41.8406    22.1338 C            1 RES          0.0000
    596 H           54.5300    40.8864    20.6280 H            1 RES          0.0000
    597 H           54.2364    40.3465    22.3411 H            1 RES          0.0000
    598 H           56.1044    42.7140    21.4740 H            1 RES          0.0000
    599 H           55.8108    42.1741    23.1869 H            1 RES          0.0000
    600 C           57.3454    40.9321    22.0918 C            1 RES          0.0000
    601 C           58.8449    41.5559    22.5455 C            1 RES          0.0000
    602 H           57.4671    40.5972    21.0405 H            1 RES          0.0000
    603 H           57.1735    40.0574    22.7533 H            1 RES          0.0000
    604 H           59.0303    42.4295    21.8861 H            1 RES          0.0000
    605 H           58.7367    41.8898    23.5987 H            1 RES          0.0000
    606 C           60.2577    40.6456    22.5008 C            1 RES          0.0000
    607 C            0.1866    41.2745    22.9537 C            1 RES          0.0000
    608 H           60.3805    40.3101    21.4497 H            1 RES          0.0000
    609 H           60.0869    39.7704    23.1620 H            1 RES          0.0000
    610 H            0.3730    42.1482    22.2948 H            1 RES          0.0000
    611 H            0.0795    41.6086    24.0069 H            1 RES          0.0000
    612 C            1.5851    40.3618    22.9058 C            1 RES          0.0000
    613 C            3.0559    40.9973    23.3583 C            1 RES          0.0000
    614 H            1.7090    40.0260    21.8551 H            1 RES          0.0000
    615 H            1.4155    39.4865    23.5670 H            1 RES          0.0000
    616 H            3.2427    41.8708    22.6997 H            1 RES          0.0000
    617 H            2.9493    41.3314    24.4112 H            1 RES          0.0000
    618 C            4.4380    40.0809    23.3064 C            1 RES          0.0000
    619 C            5.8921    40.7240    23.7583 C            1 RES          0.0000
    620 H            4.5628    39.7450    22.2562 H            1 RES          0.0000
    621 H            4.2695    39.2057    23.9674 H            1 RES          0.0000
    622 H            6.0805    41.5970    23.1002 H            1 RES          0.0000
    623 H            5.7872    41.0578    24.8111 H            1 RES          0.0000
    624 C            7.2553    39.8032    23.7018 C            1 RES          0.0000
    625 C            8.6899    40.4543    24.1529 C            1 RES          0.0000
    626 H            7.3818    39.4673    22.6522 H            1 RES          0.0000
    627 H            7.0885    38.9282    24.3628 H            1 RES          0.0000
    628 H            8.8798    41.3271    23.4954 H            1 RES          0.0000
    629 H            8.5867    40.7882    25.2056 H            1 RES          0.0000
    630 C           10.0316    39.5291    24.0913 C            1 RES          0.0000
    631 C           11.4453    40.1870    24.5410 C            1 RES          0.0000
    632 H           10.1585    39.1924    23.0420 H            1 RES          0.0000
    633 H            9.8654    38.6535    24.7519 H            1 RES          0.0000
    634 H           11.6360    41.0609    23.8843 H            1 RES          0.0000
    635 H           11.3429    40.5221    25.5938 H            1 RES          0.0000
    636 C           12.7632    39.2569    24.4737 C            1 RES          0.0000
    637 C           14.1578    39.9166    24.9207 C            1 RES          0.0000
    638 H           12.8875    38.9191    23.4238 H            1 RES          0.0000
    639 H           12.5944    38.3803    25.1334 H            1 RES          0.0000
    640 H           14.3501    40.7916    24.2649 H            1 RES          0.0000
    641 H           14.0571    40.2530    25.9739 H            1 RES          0.0000
    642 C           15.4507    38.9805    24.8473 C            1 RES          0.0000
    643 C           16.8276    39.6392    25.2908 C            1 RES          0.0000
    644 H           15.5730    38.6414    23.7969 H            1 RES          0.0000
    645 H           15.2801    38.1028    25.5059 H            1 RES          0.0000
    646 H           17.0262    40.5149    24.6367 H            1 RES          0.0000
    647 H           16.7334    39.9765    26.3451 H            1 RES          0.0000
    648 C           18.0895    38.6923    25.2087 C            1 RES          0.0000
    649 C           19.4481    39.3472    25.6479 C            1 RES          0.0000
    650 H           18.2086    38.3522    24.1577 H            1 RES          0.0000
    651 H           17.9158    37.8137    25.8663 H            1 RES          0.0000
    652 H           19.6550    40.2229    24.9957 H            1 RES          0.0000
    653 H           19.3624    39.6848    26.7033 H            1 RES          0.0000
    654 C           20.6706    38.3815    25.5531 C            1 RES          0.0000
    655 C           22.0145    39.0256    25.9864 C            1 RES          0.0000
    656 H           20.7803    38.0415    24.5008 H            1 RES          0.0000
    657 H           20.4876    37.5032    26.2090 H            1 RES          0.0000
    658 H           22.2318    39.9005    25.3361 H            1 RES          0.0000
    659 H           21.9393    39.3626    27.0430 H            1 RES          0.0000
    660 C           23.1925    38.0353    25.8762 C            1 RES          0.0000
    661 C           24.5221    38.6626    26.3018 C            1 RES          0.0000
    662 H           25.3415    37.9155    26.2067 H            1 RES          0.0000
    663 H           23.2941    37.6959    24.8233 H            1 RES          0.0000
    664 H           23.0015    37.1579    26.5304 H            1 RES          0.0000
    665 H           24.7666    39.5339    25.6585 H            1 RES          0.0000
    666 H           24.4752    38.9980    27.3591 H            1 RES          0.0000
    667 H           49.3088    48.7896    32.2391 H            1 RES          0.0000
    668 C           48.8423    47.7864    32.3596 C            1 RES          0.0000
    669 C           47.7970    47.8281    33.4767 C            1 RES          0.0000
    670 H           48.3721    47.5009    31.3952 H            1 RES          0.0000
    671 H           49.6422    47.0550    32.6002 H            1 RES          0.0000
    672 H           47.0323    48.5864    33.2037 H            1 RES          0.0000
    673 H           48.3072    48.1387    34.4134 H            1 RES          0.0000
    674 C           47.1132    46.4619    33.6917 C            1 RES          0.0000
    675 C           46.0551    46.5133    34.8259 C            1 RES          0.0000
    676 H           46.6214    46.1640    32.7405 H            1 RES          0.0000
    677 H           47.8961    45.7163    33.9500 H            1 RES          0.0000
    678 H           45.2956    47.2756    34.5480 H            1 RES          0.0000
    679 H           46.5713    46.8276    35.7585 H            1 RES          0.0000
    680 C           45.3359    45.1518    35.0800 C            1 RES          0.0000
    681 C           44.2656    45.2071    36.2284 C            1 RES          0.0000
    682 H           44.8364    44.8491    34.1344 H            1 RES          0.0000
    683 H           46.1117    44.4013    35.3445 H            1 RES          0.0000
    684 H           43.5126    45.9733    35.9448 H            1 RES          0.0000
    685 H           44.7887    45.5252    37.1556 H            1 RES          0.0000
    686 C           43.5155    43.8470    36.5156 C            1 RES          0.0000
    687 C           42.4317    43.8984    37.6768 C            1 RES          0.0000
    688 H           43.0098    43.5412    35.5748 H            1 RES          0.0000
    689 H           44.2857    43.0932    36.7854 H            1 RES          0.0000
    690 H           41.6810    44.6652    37.3908 H            1 RES          0.0000
    691 H           42.9573    44.2170    38.6018 H            1 RES          0.0000
    692 C           41.6579    42.5359    37.9881 C            1 RES          0.0000
    693 C           40.5614    42.5813    39.1606 C            1 RES          0.0000
    694 H           41.1473    42.2284    37.0514 H            1 RES          0.0000
    695 H           42.4236    41.7802    38.2625 H            1 RES          0.0000
    696 H           39.8120    43.3476    38.8726 H            1 RES          0.0000
    697 H           41.0887    42.8993    40.0840 H            1 RES          0.0000
    698 C           39.7689    41.2142    39.4899 C            1 RES          0.0000
    699 C           38.6592    41.2504    40.6729 C            1 RES          0.0000
    700 H           39.2567    40.9073    38.5546 H            1 RES          0.0000
    701 H           40.5335    40.4589    39.7660 H            1 RES          0.0000
    702 H           37.9116    42.0169    40.3827 H            1 RES          0.0000
    703 H           39.1886    41.5685    41.5944 H            1 RES          0.0000
    704 C           37.8490    39.8784    41.0190 C            1 RES          0.0000
    705 C           36.7255    39.9002    42.2113 C            1 RES          0.0000
    706 H           37.3358    39.5722    40.0846 H            1 RES          0.0000
    707 H           38.6131    39.1237    41.2964 H            1 RES          0.0000
    708 H           35.9774    40.6660    41.9208 H            1 RES          0.0000
    709 H           37.2550    40.2174    43.1329 H            1 RES          0.0000
    710 C           35.8994    38.5236    42.5725 C            1 RES          0.0000
    711 C           34.7633    38.5305    43.7724 C            1 RES          0.0000
    712 H           35.3848    38.2169    41.6387 H            1 RES          0.0000
    713 H           36.6626    37.7682    42.8511 H            1 RES          0.0000
    714 H           34.0138    39.2958    43.4828 H            1 RES          0.0000
    715 H           35.2918    38.8470    44.6954 H            1 RES          0.0000
    716 C           33.9231    37.1504    44.1472 C            1 RES          0.0000
    717 C           32.7764    37.1439    45.3535 C            1 RES          0.0000
    718 H           33.4072    36.8428    43.2140 H            1 RES          0.0000
    719 H           34.6855    36.3939    44.4269 H            1 RES          0.0000
    720 H           32.0259    37.9088    45.0643 H            1 RES          0.0000
    721 H           33.3044    37.4598    46.2773 H            1 RES          0.0000
    722 C           31.9240    35.7606    45.7400 C            1 RES          0.0000
    723 C           30.7674    35.7419    46.9522 C            1 RES          0.0000
    724 H           31.4075    35.4527    44.8068 H            1 RES          0.0000
    725 H           32.6862    35.0037    46.0200 H            1 RES          0.0000
    726 H           30.0159    36.5064    46.6634 H            1 RES          0.0000
    727 H           31.2948    36.0573    47.8767 H            1 RES          0.0000
    728 C           29.9044    34.3552    47.3485 C            1 RES          0.0000
    729 C           28.7391    34.3267    48.5661 C            1 RES          0.0000
    730 H           29.3870    34.0471    46.4159 H            1 RES          0.0000
    731 H           30.6661    33.5980    47.6294 H            1 RES          0.0000
    732 H           27.9868    35.0902    48.2776 H            1 RES          0.0000
    733 H           29.2660    34.6410    49.4913 H            1 RES          0.0000
    734 C           27.8670    32.9366    48.9709 C            1 RES          0.0000
    735 C           26.6945    32.9001    50.1933 C            1 RES          0.0000
    736 H           27.3487    32.6285    48.0389 H            1 RES          0.0000
    737 H           28.6280    32.1792    49.2527 H            1 RES          0.0000
    738 H           25.9412    33.6628    49.9051 H            1 RES          0.0000
    739 H           27.2207    33.2135    51.1190 H            1 RES          0.0000
    740 C           25.8148    31.5073    50.6049 C            1 RES          0.0000
    741 C           24.6363    31.4645    51.8313 C            1 RES          0.0000
    742 H           25.2954    31.1989    49.6737 H            1 RES          0.0000
    743 H           26.5750    30.7496    50.8877 H            1 RES          0.0000
    744 H           23.8822    32.2262    51.5434 H            1 RES          0.0000
    745 H           25.1619    31.7768    52.7575 H            1 RES          0.0000
    746 C           23.7506    30.0692    52.2483 C            1 RES          0.0000
    747 C           22.5673    30.0217    53.4780 C            1 RES          0.0000
    748 H           23.2303    29.7608    51.3180 H            1 RES          0.0000
    749 H           24.5100    29.3114    52.5321 H            1 RES          0.0000
    750 H           21.8127    30.7827    53.1903 H            1 RES          0.0000
    751 H           23.0925    30.3333    54.4045 H            1 RES          0.0000
    752 C           21.6770    28.6243    53.8992 C            1 RES          0.0000
    753 C           20.4898    28.5729    55.1315 C            1 RES          0.0000
    754 H           21.1561    28.3160    52.9693 H            1 RES          0.0000
    755 H           22.4360    27.8665    54.1835 H            1 RES          0.0000
    756 H           19.7348    29.3333    54.8439 H            1 RES          0.0000
    757 H           21.0147    28.8839    56.0582 H            1 RES          0.0000
    758 C           19.5955    27.1740    55.5563 C            1 RES          0.0000
    759 C           18.4053    27.1193    56.7905 C            1 RES          0.0000
    760 H           19.0741    26.8656    54.6268 H            1 RES          0.0000
    761 H           20.3541    26.4161    55.8411 H            1 RES          0.0000
    762 H           17.6499    27.8794    56.5031 H            1 RES          0.0000
    763 H           18.9299    27.4299    57.7176 H            1 RES          0.0000
    764 C           17.5080    25.7194    57.2182 C            1 RES          0.0000
    765 C           16.3155    25.6621    58.4538 C            1 RES          0.0000
    766 H           16.9861    25.4108    56.2889 H            1 RES          0.0000
    767 H           18.2662    24.9613    57.5034 H            1 RES          0.0000
    768 H           15.5597    26.4219    58.1667 H            1 RES          0.0000
    769 H           16.8398    25.9723    59.3812 H            1 RES          0.0000
    770 C           15.4159    24.2615    58.8837 C            1 RES          0.0000
    771 C           14.2218    24.2022    60.1203 C            1 RES          0.0000
    772 H           14.8936    23.9527    57.9547 H            1 RES          0.0000
    773 H           16.1738    23.5031    59.1692 H            1 RES          0.0000
    774 H           13.4655    24.9618    59.8334 H            1 RES          0.0000
    775 H           14.7457    24.5122    61.0480 H            1 RES          0.0000
    776 C           13.3204    22.8012    60.5518 C            1 RES          0.0000
    777 C           12.1251    22.7404     0.2319 C            1 RES          0.0000
    778 H           12.7978    22.4922    59.6229 H            1 RES          0.0000
    779 H           14.0780    22.0426    60.8375 H            1 RES          0.0000
    780 H           11.3686    23.4998    61.5024 H            1 RES          0.0000
    781 H           12.6488    23.0502     1.1598 H            1 RES          0.0000
    782 C           11.2224    21.3390     0.6645 C            1 RES          0.0000
    783 C           10.0262    21.2772     1.9025 C            1 RES          0.0000
    784 H           10.6997    21.0299    61.2931 H            1 RES          0.0000
    785 H           11.9800    20.5803     0.9504 H            1 RES          0.0000
    786 H            9.2696    22.0365     1.6158 H            1 RES          0.0000
    787 H           10.5499    21.5869     2.8305 H            1 RES          0.0000
    788 C            9.1228    19.8755     2.3359 C            1 RES          0.0000
    789 C            7.9259    19.8130     3.5743 C            1 RES          0.0000
    790 H            8.5999    19.5663     1.4073 H            1 RES          0.0000
    791 H            9.8801    19.1167     2.6220 H            1 RES          0.0000
    792 H            7.1692    20.5722     3.2877 H            1 RES          0.0000
    793 H            8.4494    20.1226     4.5024 H            1 RES          0.0000
    794 C            7.0219    18.4111     4.0082 C            1 RES          0.0000
    795 C            5.8246    18.3482     5.2469 C            1 RES          0.0000
    796 H            6.4988    18.1019     3.0798 H            1 RES          0.0000
    797 H            7.7791    17.6522     4.2944 H            1 RES          0.0000
    798 H            5.0677    19.1073     4.9604 H            1 RES          0.0000
    799 H            6.3480    18.6577     6.1750 H            1 RES          0.0000
    800 C            4.9201    16.9461     5.6812 C            1 RES          0.0000
    801 C            3.7226    16.8829     6.9201 C            1 RES          0.0000
    802 H            4.3970    16.6369     4.7528 H            1 RES          0.0000
    803 H            5.6773    16.1872     5.9675 H            1 RES          0.0000
    804 H            2.9657    17.6420     6.6336 H            1 RES          0.0000
    805 H            4.2460    17.1923     7.8483 H            1 RES          0.0000
    806 C            2.8179    15.4808     7.3546 C            1 RES          0.0000
    807 C            1.6202    15.4173     8.5936 C            1 RES          0.0000
    808 H            2.2947    15.1715     6.4263 H            1 RES          0.0000
    809 H            3.5750    14.7218     7.6409 H            1 RES          0.0000
    810 H            0.8632    16.1764     8.3072 H            1 RES          0.0000
    811 H            2.1435    15.7268     9.5218 H            1 RES          0.0000
    812 C            0.7154    14.0152     9.0283 C            1 RES          0.0000
    813 C           61.0748    13.9517    10.2673 C            1 RES          0.0000
    814 H            0.1921    13.7058     8.1000 H            1 RES          0.0000
    815 H            1.4724    13.2562     9.3146 H            1 RES          0.0000
    816 H           60.3178    14.7107     9.9809 H            1 RES          0.0000
    817 H            0.0409    14.2611    11.1955 H            1 RES          0.0000
    818 C           60.1700    12.5495    10.7020 C            1 RES          0.0000
    819 C           58.9722    12.4860    11.9410 C            1 RES          0.0000
    820 H           59.6467    12.2401     9.7737 H            1 RES          0.0000
    821 H           60.9270    11.7905    10.9884 H            1 RES          0.0000
    822 H           58.2151    13.2450    11.6546 H            1 RES          0.0000
    823 H           59.4954    12.7954    12.8693 H            1 RES          0.0000
    824 C           58.0674    11.0838    12.3757 C            1 RES          0.0000
    825 C           56.8697    11.0204    13.6146 C            1 RES          0.0000
    826 H           57.5441    10.7744    11.4475 H            1 RES          0.0000
    827 H           58.8244    10.3248    12.6621 H            1 RES          0.0000
    828 H           56.1125    11.7794    13.3283 H            1 RES          0.0000
    829 H           57.3928    11.3298    14.5430 H            1 RES          0.0000
    830 C           55.9650     9.6183    14.0492 C            1 RES          0.0000
    831 C           54.7674     9.5551    15.2881 C            1 RES          0.0000
    832 H           55.4416     9.3088    13.1210 H            1 RES          0.0000
    833 H           56.7219     8.8593    14.3357 H            1 RES          0.0000
    834 H           54.0102    10.3140    15.0017 H            1 RES          0.0000
    835 H           55.2905     9.8644    16.2164 H            1 RES          0.0000
    836 C           53.8630     8.1530    15.7224 C            1 RES          0.0000
    837 C           52.6657     8.0901    16.9611 C            1 RES          0.0000
    838 H           53.3396     7.8435    14.7943 H            1 RES          0.0000
    839 H           54.6199     7.3939    16.0090 H            1 RES          0.0000
    840 H           51.9085     8.8490    16.6748 H            1 RES          0.0000
    841 H           53.1887     8.3994    17.8895 H            1 RES          0.0000
    842 C           51.7617     6.6882    17.3951 C            1 RES          0.0000
    843 C           50.5648     6.6258    18.6334 C            1 RES          0.0000
    844 H           51.2382     6.3786    16.4670 H            1 RES          0.0000
    845 H           52.5185     5.9291    17.6817 H            1 RES          0.0000
    846 H           49.8075     7.3845    18.3473 H            1 RES          0.0000
    847 H           51.0877     6.9350    19.5620 H            1 RES          0.0000
    848 C           49.6614     5.2241    19.0669 C            1 RES          0.0000
    849 C           48.4652     5.1623    20.3048 C            1 RES          0.0000
    850 H           49.1378     4.9143    18.1389 H            1 RES          0.0000
    851 H           50.4181     4.4648    19.3536 H            1 RES          0.0000
    852 H           47.7076     5.9210    20.0188 H            1 RES          0.0000
    853 H           48.9879     5.4715    21.2335 H            1 RES          0.0000
    854 C           47.5626     3.7610    20.7375 C            1 RES          0.0000
    855 C           46.3673     3.7002    21.9749 C            1 RES          0.0000
    856 H           47.0389     3.4510    19.8097 H            1 RES          0.0000
    857 H           48.3191     3.0015    21.0243 H            1 RES          0.0000
    858 H           45.6096     4.4587    21.6890 H            1 RES          0.0000
    859 H           46.8898     4.0093    22.9037 H            1 RES          0.0000
    860 C           45.4660     2.2992    22.4064 C            1 RES          0.0000
    861 C           44.2718     2.2399    23.6430 C            1 RES          0.0000
    862 H           44.9421     1.9891    21.4787 H            1 RES          0.0000
    863 H           46.2222     1.5396    22.6934 H            1 RES          0.0000
    864 H           43.5139     2.9982    23.3574 H            1 RES          0.0000
    865 H           44.7940     2.5488    24.5720 H            1 RES          0.0000
    866 C           43.3722     0.8393    24.0729 C            1 RES          0.0000
    867 C           42.1797     0.7820    25.3085 C            1 RES          0.0000
    868 H           42.8481     0.5290    23.1455 H            1 RES          0.0000
    869 H           44.1281     0.0796    24.3601 H            1 RES          0.0000
    870 H           41.4215     1.5401    25.0231 H            1 RES          0.0000
    871 H           42.7015     1.0907    26.2377 H            1 RES          0.0000
    872 C           41.2824    60.9393    25.7361 C            1 RES          0.0000
    873 C           40.0922    60.8847    26.9703 C            1 RES          0.0000
    874 H           40.7579    60.6287    24.8091 H            1 RES          0.0000
    875 H           42.0379    60.1793    26.0236 H            1 RES          0.0000
    876 H           39.3336     0.0852    26.6854 H            1 RES          0.0000
    877 H           40.6135    61.1932    27.8999 H            1 RES          0.0000
    878 C           39.1980    59.4857    27.3951 C            1 RES          0.0000
    879 C           38.0108    59.4344    28.6273 C            1 RES          0.0000
    880 H           38.6732    59.1747    26.4684 H            1 RES          0.0000
    881 H           39.9530    58.7254    27.6828 H            1 RES          0.0000
    882 H           37.2517    60.1921    28.3429 H            1 RES          0.0000
    883 H           38.5316    59.7428    29.5573 H            1 RES          0.0000
    884 C           37.1205    58.0369    29.0486 C            1 RES          0.0000
    885 C           35.9371    57.9895    30.2781 C            1 RES          0.0000
    886 H           36.5953    57.7253    28.1221 H            1 RES          0.0000
    887 H           37.8751    57.2760    29.3364 H            1 RES          0.0000
    888 H           35.1777    58.7472    29.9943 H            1 RES          0.0000
    889 H           36.4574    58.2980    31.2085 H            1 RES          0.0000
    890 C           35.0516    56.5942    30.6952 C            1 RES          0.0000
    891 C           33.8730    56.5514    31.9215 C            1 RES          0.0000
    892 H           34.5260    56.2817    29.7690 H            1 RES          0.0000
    893 H           35.8056    55.8325    30.9831 H            1 RES          0.0000
    894 H           33.1128    57.3090    31.6386 H            1 RES          0.0000
    895 H           34.3923    56.8598    32.8527 H            1 RES          0.0000
    896 C           32.9934    55.1586    32.3331 C            1 RES          0.0000
    897 C           31.8208    55.1220    33.5555 C            1 RES          0.0000
    898 H           32.4672    54.8451    31.4074 H            1 RES          0.0000
    899 H           33.7466    54.3959    32.6214 H            1 RES          0.0000
    900 H           31.0598    55.8794    33.2735 H            1 RES          0.0000
    901 H           32.3391    55.4302    34.4874 H            1 RES          0.0000
    902 C           30.9487    53.7320    33.9602 C            1 RES          0.0000
    903 C           29.7835    53.7035    35.1778 C            1 RES          0.0000
    904 H           30.4219    53.4176    33.0350 H            1 RES          0.0000
    905 H           31.7011    52.9685    34.2488 H            1 RES          0.0000
    906 H           29.0218    54.4606    34.8968 H            1 RES          0.0000
    907 H           30.3008    54.0116    36.1104 H            1 RES          0.0000
    908 C           28.9206    52.3167    35.5741 C            1 RES          0.0000
    909 C           27.7639    52.2981    36.7862 C            1 RES          0.0000
    910 H           28.3932    52.0013    34.6495 H            1 RES          0.0000
    911 H           29.6720    51.5523    35.8629 H            1 RES          0.0000
    912 H           27.0017    53.0549    36.5061 H            1 RES          0.0000
    913 H           28.2804    52.6060    37.7194 H            1 RES          0.0000
    914 C           26.9116    50.9148    37.1727 C            1 RES          0.0000
    915 C           25.7648    50.9084    38.3789 C            1 RES          0.0000
    916 H           26.3836    50.5988    36.2489 H            1 RES          0.0000
    917 H           27.6621    50.1499    37.4619 H            1 RES          0.0000
    918 H           25.0025    51.6648    38.0993 H            1 RES          0.0000
    919 H           26.2808    51.2160    39.3121 H            1 RES          0.0000
    920 C           24.9246    49.5282    38.7537 C            1 RES          0.0000
    921 C           23.7886    49.5352    39.9536 C            1 RES          0.0000
    922 H           24.3962    49.2118    37.8307 H            1 RES          0.0000
    923 H           25.6742    48.7630    39.0433 H            1 RES          0.0000
    924 H           23.0254    50.2906    39.6751 H            1 RES          0.0000
    925 H           24.3032    49.8419    40.8874 H            1 RES          0.0000
    926 C           22.9625    48.1586    40.3149 C            1 RES          0.0000
    927 C           21.8391    48.1804    41.5071 C            1 RES          0.0000
    928 H           22.4331    47.8414    39.3932 H            1 RES          0.0000
    929 H           23.7106    47.3928    40.6053 H            1 RES          0.0000
    930 H           21.0750    48.9351    41.2297 H            1 RES          0.0000
    931 H           22.3523    48.4866    42.4415 H            1 RES          0.0000
    932 C           21.0289    46.8084    41.8532 C            1 RES          0.0000
    933 C           19.9192    46.8447    43.0363 C            1 RES          0.0000
    934 H           20.4994    46.4904    40.9317 H            1 RES          0.0000
    935 H           21.7765    46.0419    42.1433 H            1 RES          0.0000
    936 H           19.1547    47.6000    42.7602 H            1 RES          0.0000
    937 H           20.4315    47.1516    43.9715 H            1 RES          0.0000
    938 C           19.1267    45.4776    43.3656 C            1 RES          0.0000
    939 C           18.0303    45.5230    44.5381 C            1 RES          0.0000
    940 H           18.5994    45.1597    42.4422 H            1 RES          0.0000
    941 H           19.8762    44.7112    43.6534 H            1 RES          0.0000
    942 H           17.2646    46.2787    44.2639 H            1 RES          0.0000
    943 H           18.5411    45.8304    45.4747 H            1 RES          0.0000
    944 C           17.2566    44.1605    44.8493 C            1 RES          0.0000
    945 C           16.1729    44.2119    46.0107 C            1 RES          0.0000
    946 H           16.7309    43.8420    43.9244 H            1 RES          0.0000
    947 H           18.0073    43.3937    45.1352 H            1 RES          0.0000
    948 H           15.4027    44.9657    45.7410 H            1 RES          0.0000
    949 H           16.6787    44.5176    46.9514 H            1 RES          0.0000
    950 C           15.4228    42.8518    46.2979 C            1 RES          0.0000
    951 C           14.3528    42.9070    47.4464 C            1 RES          0.0000
    952 H           14.8997    42.5338    45.3707 H            1 RES          0.0000
    953 H           16.1759    42.0855    46.5813 H            1 RES          0.0000
    954 H           13.5769    43.6575    47.1821 H            1 RES          0.0000
    955 H           14.8523    43.2095    48.3919 H            1 RES          0.0000
    956 C           13.6336    41.5455    47.7004 C            1 RES          0.0000
    957 C           12.5757    41.5967    48.8348 C            1 RES          0.0000
    958 H           13.1172    41.2313    46.7679 H            1 RES          0.0000
    959 H           14.3931    40.7831    47.9781 H            1 RES          0.0000
    960 H           11.7927    42.3423    48.5767 H            1 RES          0.0000
    961 H           13.0676    41.8945    49.7860 H            1 RES          0.0000
    962 C           11.8920    40.2304    49.0497 C            1 RES          0.0000
    963 C           10.8468    40.2720    50.1670 C            1 RES          0.0000
    964 H           10.3803    39.2688    50.2874 H            1 RES          0.0000
    965 H           11.3815    39.9200    48.1130 H            1 RES          0.0000
    966 H           12.6567    39.4721    49.3225 H            1 RES          0.0000
    967 H           10.0469    41.0035    49.9266 H            1 RES          0.0000
    968 H           11.3171    40.5573    51.1314 H            1 RES          0.0000
    969 H           48.0439    51.4664    11.5876 H            1 RES          0.0000
    970 C           47.0760    51.0920    11.9895 C            1 RES          0.0000
    971 C           46.0923    52.2539    12.1470 C            1 RES          0.0000
    972 H           46.6747    50.3332    11.2854 H            1 RES          0.0000
    973 H           47.2680    50.6073    12.9697 H            1 RES          0.0000
    974 H           45.9488    52.7203    11.1489 H            1 RES          0.0000
    975 H           46.5444    52.9955    12.8398 H            1 RES          0.0000
    976 C           44.7276    51.7961    12.7022 C            1 RES          0.0000
    977 C           43.7366    52.9801    12.8586 C            1 RES          0.0000
    978 H           44.2998    51.0459    12.0025 H            1 RES          0.0000
    979 H           44.8953    51.3210    13.6930 H            1 RES          0.0000
    980 H           43.6003    53.4438    11.8579 H            1 RES          0.0000
    981 H           44.1962    53.7192    13.5497 H            1 RES          0.0000
    982 C           42.3402    52.5646    13.4181 C            1 RES          0.0000
    983 C           41.3396    53.7651    13.5752 C            1 RES          0.0000
    984 H           41.9027    51.8180    12.7207 H            1 RES          0.0000
    985 H           42.4985    52.0932    14.4120 H            1 RES          0.0000
    986 H           41.2116    54.2251    12.5719 H            1 RES          0.0000
    987 H           41.8077    54.5004    14.2642 H            1 RES          0.0000
    988 C           39.9142    53.3841    14.1393 C            1 RES          0.0000
    989 C           38.8986    54.5959    14.2999 C            1 RES          0.0000
    990 H           39.4692    52.6411    13.4436 H            1 RES          0.0000
    991 H           40.0653    52.9164    15.1356 H            1 RES          0.0000
    992 H           38.7730    55.0536    13.2959 H            1 RES          0.0000
    993 H           39.3693    55.3290    14.9886 H            1 RES          0.0000
    994 C           37.4492    54.2382    14.8687 C            1 RES          0.0000
    995 C           36.4182    55.4584    15.0333 C            1 RES          0.0000
    996 H           36.9986    53.4986    14.1740 H            1 RES          0.0000
    997 H           37.5949    53.7740    15.8667 H            1 RES          0.0000
    998 H           36.2938    55.9141    14.0290 H            1 RES          0.0000
    999 H           36.8902    56.1896    15.7222 H            1 RES          0.0000
   1000 C           34.9485    55.1169    15.6066 C            1 RES          0.0000
   1001 C           33.9000    56.3433    15.7765 C            1 RES          0.0000
   1002 H           34.4967    54.3791    14.9118 H            1 RES          0.0000
   1003 H           35.0932    54.6546    16.6050 H            1 RES          0.0000
   1004 H           33.7775    56.7969    14.7715 H            1 RES          0.0000
   1005 H           34.3741    57.0725    16.4651 H            1 RES          0.0000
   1006 C           32.4107    56.0166    16.3543 C            1 RES          0.0000
   1007 C           31.3415    57.2453    16.5311 C            1 RES          0.0000
   1008 H           31.9584    55.2802    15.6590 H            1 RES          0.0000
   1009 H           32.5552    55.5557    17.3528 H            1 RES          0.0000
   1010 H           31.2182    57.6984    15.5261 H            1 RES          0.0000
   1011 H           31.8150    57.9740    17.2203 H            1 RES          0.0000
   1012 C           29.8345    56.9317    17.1130 C            1 RES          0.0000
   1013 C           28.7455    58.1609    17.2966 C            1 RES          0.0000
   1014 H           29.3807    56.1958    16.4177 H            1 RES          0.0000
   1015 H           29.9777    56.4715    18.1122 H            1 RES          0.0000
   1016 H           28.6206    58.6147    16.2918 H            1 RES          0.0000
   1017 H           29.2177    58.8904    17.9866 H            1 RES          0.0000
   1018 C           27.2231    57.8593    17.8820 C            1 RES          0.0000
   1019 C           26.1169    59.0883    18.0718 C            1 RES          0.0000
   1020 H           26.7676    57.1238    17.1869 H            1 RES          0.0000
   1021 H           27.3648    57.3996    18.8821 H            1 RES          0.0000
   1022 H           25.9910    59.5425    17.0669 H            1 RES          0.0000
   1023 H           26.5883    59.8183    18.7624 H            1 RES          0.0000
   1024 C           24.5812    58.7972    18.6602 C            1 RES          0.0000
   1025 C           23.4592    60.0262    18.8555 C            1 RES          0.0000
   1026 H           24.1251    58.0617    17.9649 H            1 RES          0.0000
   1027 H           24.7225    58.3375    19.6607 H            1 RES          0.0000
   1028 H           23.3321    60.4807    17.8506 H            1 RES          0.0000
   1029 H           23.9296    60.7566    19.5466 H            1 RES          0.0000
   1030 C           21.9115    59.7434    19.4468 C            1 RES          0.0000
   1031 C           20.7761    60.9730    19.6467 C            1 RES          0.0000
   1032 H           21.4545    59.0084    18.7515 H            1 RES          0.0000
   1033 H           22.0521    59.2843    20.4477 H            1 RES          0.0000
   1034 H           20.6478    61.4275    18.6421 H            1 RES          0.0000
   1035 H           21.2454     0.1462    20.3385 H            1 RES          0.0000
   1036 C           19.2179    60.6972    20.2405 C            1 RES          0.0000
   1037 C           18.0713     0.3705    20.4443 C            1 RES          0.0000
   1038 H           18.7600    59.9630    19.5452 H            1 RES          0.0000
   1039 H           19.3577    60.2390    21.2418 H            1 RES          0.0000
   1040 H           17.9418     0.8249    19.4399 H            1 RES          0.0000
   1041 H           18.5395     1.1009    21.1366 H            1 RES          0.0000
   1042 C           16.5044     0.1004    21.0402 C            1 RES          0.0000
   1043 C           15.3488     1.3319    21.2470 C            1 RES          0.0000
   1044 H           16.0455    60.9242    20.3450 H            1 RES          0.0000
   1045 H           16.6433    61.2002    22.0419 H            1 RES          0.0000
   1046 H           15.2181     1.7862    20.2429 H            1 RES          0.0000
   1047 H           15.8159     2.0622    21.9399 H            1 RES          0.0000
   1048 C           13.7749     1.0660    21.8447 C            1 RES          0.0000
   1049 C           12.6124     2.2986    22.0537 C            1 RES          0.0000
   1050 H           13.3150     0.3334    21.1495 H            1 RES          0.0000
   1051 H           13.9129     0.6094    22.8466 H            1 RES          0.0000
   1052 H           12.4807     2.7527    21.0499 H            1 RES          0.0000
   1053 H           13.0786     3.0288    22.7471 H            1 RES          0.0000
   1054 C           11.0328     2.0359    22.6529 C            1 RES          0.0000
   1055 C            9.8645     3.2693    22.8638 C            1 RES          0.0000
   1056 H           10.5725     1.3038    21.9577 H            1 RES          0.0000
   1057 H           11.1704     1.5799    23.6550 H            1 RES          0.0000
   1058 H            9.7322     3.7233    21.8602 H            1 RES          0.0000
   1059 H           10.3301     3.9993    23.5575 H            1 RES          0.0000
   1060 C            8.2804     3.0095    23.4641 C            1 RES          0.0000
   1061 C            7.1075     4.2432    23.6766 C            1 RES          0.0000
   1062 H            7.8196     2.2778    22.7690 H            1 RES          0.0000
   1063 H            8.4175     2.5539    24.4664 H            1 RES          0.0000
   1064 H            6.9745     4.6972    22.6731 H            1 RES          0.0000
   1065 H            7.5725     4.9733    24.3706 H            1 RES          0.0000
   1066 C            5.5200     3.9858    24.2777 C            1 RES          0.0000
   1067 C            4.3435     5.2196    24.4915 C            1 RES          0.0000
   1068 H            5.0586     3.2544    23.5827 H            1 RES          0.0000
   1069 H            5.6566     3.5305    25.2803 H            1 RES          0.0000
   1070 H            4.2100     5.6739    23.4881 H            1 RES          0.0000
   1071 H            4.8080     5.9500    25.1857 H            1 RES          0.0000
   1072 C            2.7534     4.9642    25.0932 C            1 RES          0.0000
   1073 C            1.5742     6.1980    25.3079 C            1 RES          0.0000
   1074 H            2.2915     4.2329    24.3982 H            1 RES          0.0000
   1075 H            2.8895     4.5090    26.0959 H            1 RES          0.0000
   1076 H            1.4403     6.6525    24.3045 H            1 RES          0.0000
   1077 H            2.0383     6.9286    26.0022 H            1 RES          0.0000
   1078 C           61.5395     5.9441    25.9100 C            1 RES          0.0000
   1079 C           60.3584     7.1779    26.1253 C            1 RES          0.0000
   1080 H           61.0773     5.2129    25.2151 H            1 RES          0.0000
   1081 H            0.1181     5.4890    26.9128 H            1 RES          0.0000
   1082 H           60.2243     7.6324    25.1220 H            1 RES          0.0000
   1083 H           60.8223     7.9086    26.8198 H            1 RES          0.0000
   1084 C           58.7651     6.9250    26.7277 C            1 RES          0.0000
   1085 C           57.5827     8.1589    26.9436 C            1 RES          0.0000
   1086 H           58.3026     6.1939    26.0329 H            1 RES          0.0000
   1087 H           58.9007     6.4700    27.7307 H            1 RES          0.0000
   1088 H           57.4482     8.6134    25.9403 H            1 RES          0.0000
   1089 H           58.0463     8.8896    27.6381 H            1 RES          0.0000
   1090 C           55.9883     7.9066    27.5462 C            1 RES          0.0000
   1091 C           54.8049     9.1406    27.7624 C            1 RES          0.0000
   1092 H           55.5256     7.1756    26.8514 H            1 RES          0.0000
   1093 H           56.1237     7.4517    28.5492 H            1 RES          0.0000
   1094 H           54.6703     9.5952    26.7592 H            1 RES          0.0000
   1095 H           55.2684     9.8713    28.4570 H            1 RES          0.0000
   1096 C           53.2099     8.8888    28.3652 C            1 RES          0.0000
   1097 C           52.0259    10.1229    28.5816 C            1 RES          0.0000
   1098 H           52.7471     8.1578    27.6704 H            1 RES          0.0000
   1099 H           53.3452     8.4340    29.3683 H            1 RES          0.0000
   1100 H           51.8911    10.5774    27.5784 H            1 RES          0.0000
   1101 H           52.4892    10.8536    29.2763 H            1 RES          0.0000
   1102 C           50.4304     9.8713    29.1845 C            1 RES          0.0000
   1103 C           49.2460    11.1054    29.4011 C            1 RES          0.0000
   1104 H           49.9675     9.1404    28.4897 H            1 RES          0.0000
   1105 H           50.5656     9.4166    30.1876 H            1 RES          0.0000
   1106 H           49.1111    11.5600    28.3979 H            1 RES          0.0000
   1107 H           49.7092    11.8362    30.0958 H            1 RES          0.0000
   1108 C           47.6502    10.8541    30.0041 C            1 RES          0.0000
   1109 C           46.4655    12.0882    30.2207 C            1 RES          0.0000
   1110 H           47.1872    10.1232    29.3093 H            1 RES          0.0000
   1111 H           47.7853    10.3994    31.0072 H            1 RES          0.0000
   1112 H           46.3306    12.5428    29.2175 H            1 RES          0.0000
   1113 H           46.9287    12.8190    30.9154 H            1 RES          0.0000
   1114 C           44.8696    11.8370    30.8237 C            1 RES          0.0000
   1115 C           43.6848    13.0711    31.0404 C            1 RES          0.0000
   1116 H           44.4065    11.1061    30.1290 H            1 RES          0.0000
   1117 H           45.0047    11.3823    31.8269 H            1 RES          0.0000
   1118 H           43.5498    13.5258    30.0372 H            1 RES          0.0000
   1119 H           44.1480    13.8019    31.7351 H            1 RES          0.0000
   1120 C           42.0889    12.8199    31.6435 C            1 RES          0.0000
   1121 C           40.9041    14.0541    31.8601 C            1 RES          0.0000
   1122 H           41.6257    12.0891    30.9487 H            1 RES          0.0000
   1123 H           42.2239    12.3653    32.6466 H            1 RES          0.0000
   1124 H           40.7690    14.5087    30.8570 H            1 RES          0.0000
   1125 H           41.3671    14.7849    32.5548 H            1 RES          0.0000
   1126 C           39.3082    13.8028    32.4632 C            1 RES          0.0000
   1127 C           38.1235    15.0370    32.6797 C            1 RES          0.0000
   1128 H           38.8450    13.0720    31.7685 H            1 RES          0.0000
   1129 H           39.4431    13.3482    33.4663 H            1 RES          0.0000
   1130 H           37.9884    15.4916    31.6766 H            1 RES          0.0000
   1131 H           38.5865    15.7678    33.3745 H            1 RES          0.0000
   1132 C           36.5277    14.7856    33.2828 C            1 RES          0.0000
   1133 C           35.3433    16.0198    33.4993 C            1 RES          0.0000
   1134 H           36.0645    14.0548    32.5881 H            1 RES          0.0000
   1135 H           36.6626    14.3310    34.2860 H            1 RES          0.0000
   1136 H           35.2081    16.4744    32.4962 H            1 RES          0.0000
   1137 H           35.8062    16.7507    34.1940 H            1 RES          0.0000
   1138 C           33.7478    15.7682    34.1023 C            1 RES          0.0000
   1139 C           32.5638    17.0023    34.3186 C            1 RES          0.0000
   1140 H           33.2845    15.0374    33.4077 H            1 RES          0.0000
   1141 H           33.8826    15.3137    35.1055 H            1 RES          0.0000
   1142 H           32.4285    17.4570    33.3155 H            1 RES          0.0000
   1143 H           33.0266    17.7333    35.0134 H            1 RES          0.0000
   1144 C           30.9688    16.7505    34.9215 C            1 RES          0.0000
   1145 C           29.7854    17.9845    35.1376 C            1 RES          0.0000
   1146 H           30.5053    16.0197    34.2270 H            1 RES          0.0000
   1147 H           31.1035    16.2960    35.9248 H            1 RES          0.0000
   1148 H           29.6500    18.4393    34.1346 H            1 RES          0.0000
   1149 H           30.2481    18.7156    35.8324 H            1 RES          0.0000
   1150 C           28.1911    17.7323    35.7403 C            1 RES          0.0000
   1151 C           27.0087    18.9662    35.9561 C            1 RES          0.0000
   1152 H           27.7275    17.0015    35.0459 H            1 RES          0.0000
   1153 H           28.3256    17.2778    36.7436 H            1 RES          0.0000
   1154 H           26.8731    19.4211    34.9531 H            1 RES          0.0000
   1155 H           27.4712    19.6974    36.6509 H            1 RES          0.0000
   1156 C           25.4154    18.7133    36.5586 C            1 RES          0.0000
   1157 C           24.2343    19.9471    36.7739 C            1 RES          0.0000
   1158 H           24.9515    17.9826    35.8642 H            1 RES          0.0000
   1159 H           25.5496    18.2588    37.5620 H            1 RES          0.0000
   1160 H           24.0985    20.4021    35.7710 H            1 RES          0.0000
   1161 H           24.6966    20.6784    37.4687 H            1 RES          0.0000
   1162 C           22.6424    19.6932    37.3761 C            1 RES          0.0000
   1163 C           21.4633    20.9270    37.5907 C            1 RES          0.0000
   1164 H           22.1783    18.9626    36.6818 H            1 RES          0.0000
   1165 H           22.7764    19.2389    38.3795 H            1 RES          0.0000
   1166 H           21.3271    21.3821    36.5879 H            1 RES          0.0000
   1167 H           21.9252    21.6584    38.2856 H            1 RES          0.0000
   1168 C           19.8732    20.6716    38.1925 C            1 RES          0.0000
   1169 C           18.6967    21.9054    38.4061 C            1 RES          0.0000
   1170 H           19.4087    19.9411    37.4984 H            1 RES          0.0000
   1171 H           20.0067    20.2174    39.1959 H            1 RES          0.0000
   1172 H           18.5601    22.3606    37.4036 H            1 RES          0.0000
   1173 H           19.1581    22.6369    39.1011 H            1 RES          0.0000
   1174 C           17.1092    21.6480    39.0073 C            1 RES          0.0000
   1175 C           15.9363    22.8817    39.2197 C            1 RES          0.0000
   1176 H           16.6442    20.9178    38.3134 H            1 RES          0.0000
   1177 H           17.2422    21.1941    40.0109 H            1 RES          0.0000
   1178 H           15.7991    23.3372    38.2174 H            1 RES          0.0000
   1179 H           16.3971    23.6135    39.9148 H            1 RES          0.0000
   1180 C           14.3522    22.6219    39.8201 C            1 RES          0.0000
   1181 C           13.1839    23.8552    40.0309 C            1 RES          0.0000
   1182 H           13.8866    21.8918    39.1265 H            1 RES          0.0000
   1183 H           14.4846    22.1680    40.8238 H            1 RES          0.0000
   1184 H           13.0462    24.3111    39.0288 H            1 RES          0.0000
   1185 H           13.6442    24.5874    40.7260 H            1 RES          0.0000
   1186 C           11.6044    23.5925    40.6302 C            1 RES          0.0000
   1187 C           10.4418    24.8251    40.8391 C            1 RES          0.0000
   1188 H           11.1382    22.8623    39.9369 H            1 RES          0.0000
   1189 H           11.7361    23.1385    41.6340 H            1 RES          0.0000
   1190 H           10.3038    25.2815    39.8371 H            1 RES          0.0000
   1191 H           10.9017    25.5578    41.5342 H            1 RES          0.0000
   1192 C            8.8679    24.5592    41.4369 C            1 RES          0.0000
   1193 C            7.7123    25.7906    41.6436 C            1 RES          0.0000
   1194 H            8.4009    23.8287    40.7440 H            1 RES          0.0000
   1195 H            8.9987    24.1049    42.4410 H            1 RES          0.0000
   1196 H            7.5734    26.2480    40.6418 H            1 RES          0.0000
   1197 H            8.1713    26.5242    42.3387 H            1 RES          0.0000
   1198 C            6.1455    25.5204    42.2395 C            1 RES          0.0000
   1199 C            4.9989    26.7510    42.4432 C            1 RES          0.0000
   1200 H            5.6773    24.7900    41.5473 H            1 RES          0.0000
   1201 H            6.2751    25.0661    43.2440 H            1 RES          0.0000
   1202 H            4.8591    27.2091    41.4419 H            1 RES          0.0000
   1203 H            5.4568    27.4853    43.1384 H            1 RES          0.0000
   1204 C            3.4408    26.4751    43.0371 C            1 RES          0.0000
   1205 C            2.3054    27.7048    43.2369 C            1 RES          0.0000
   1206 H            2.9714    25.7447    42.3454 H            1 RES          0.0000
   1207 H            3.5691    26.0208    44.0417 H            1 RES          0.0000
   1208 H            2.1647    28.1637    42.2360 H            1 RES          0.0000
   1209 H            2.7623    28.4398    43.9322 H            1 RES          0.0000
   1210 C            0.7577    27.4219    43.8282 C            1 RES          0.0000
   1211 C           61.1930    28.6509    44.0235 C            1 RES          0.0000
   1212 H            0.2873    26.6915    43.1371 H            1 RES          0.0000
   1213 H            0.8848    26.9675    44.8331 H            1 RES          0.0000
   1214 H           61.0516    29.1105    43.0229 H            1 RES          0.0000
   1215 H            0.0918    29.3865    44.7187 H            1 RES          0.0000
   1216 C           59.6573    28.3598    44.6119 C            1 RES          0.0000
   1217 C           58.5511    29.5888    44.8016 C            1 RES          0.0000
   1218 H           59.1859    27.6297    43.9213 H            1 RES          0.0000
   1219 H           59.7832    27.9056    45.6168 H            1 RES          0.0000
   1220 H           58.4094    30.0485    43.8015 H            1 RES          0.0000
   1221 H           59.0066    30.3243    45.4967 H            1 RES          0.0000
   1222 C           57.0287    29.2872    45.3870 C            1 RES          0.0000
   1223 C           55.9398    30.5164    45.5706 C            1 RES          0.0000
   1224 H           56.5566    28.5577    44.6970 H            1 RES          0.0000
   1225 H           57.1537    28.8334    46.3919 H            1 RES          0.0000
   1226 H           55.7966    30.9765    44.5714 H            1 RES          0.0000
   1227 H           56.3936    31.2522    46.2659 H            1 RES          0.0000
   1228 C           54.4329    30.2028    46.1526 C            1 RES          0.0000
   1229 C           53.3637    31.4315    46.3293 C            1 RES          0.0000
   1230 H           53.9593    29.4741    45.4633 H            1 RES          0.0000
   1231 H           54.5561    29.7497    47.1575 H            1 RES          0.0000
   1232 H           53.2193    31.8924    45.3308 H            1 RES          0.0000
   1233 H           53.8160    32.1679    47.0247 H            1 RES          0.0000
   1234 C           51.8744    31.1047    46.9071 C            1 RES          0.0000
   1235 C           50.8260    32.3312    47.0770 C            1 RES          0.0000
   1236 H           51.4003    30.3756    46.2185 H            1 RES          0.0000
   1237 H           51.9969    30.6511    47.9120 H            1 RES          0.0000
   1238 H           50.6813    32.7935    46.0787 H            1 RES          0.0000
   1239 H           51.2778    33.0689    47.7719 H            1 RES          0.0000
   1240 C           49.3563    31.9897    47.6503 C            1 RES          0.0000
   1241 C           48.3253    33.2099    47.8151 C            1 RES          0.0000
   1242 H           48.8842    31.2586    46.9614 H            1 RES          0.0000
   1243 H           49.4807    31.5339    48.6546 H            1 RES          0.0000
   1244 H           48.1797    33.6742    46.8171 H            1 RES          0.0000
   1245 H           48.7760    33.9494    48.5098 H            1 RES          0.0000
   1246 C           46.8760    32.8522    48.3838 C            1 RES          0.0000
   1247 C           45.8604    34.0640    48.5446 C            1 RES          0.0000
   1248 H           46.4052    32.1192    47.6951 H            1 RES          0.0000
   1249 H           47.0016    32.3944    49.3878 H            1 RES          0.0000
   1250 H           45.7094    34.5318    47.5483 H            1 RES          0.0000
   1251 H           46.3055    34.8069    49.2404 H            1 RES          0.0000
   1252 C           44.4351    33.6829    49.1087 C            1 RES          0.0000
   1253 C           43.4345    34.8835    49.2660 C            1 RES          0.0000
   1254 H           43.9669    32.9477    48.4195 H            1 RES          0.0000
   1255 H           44.5631    33.2228    50.1119 H            1 RES          0.0000
   1256 H           43.2762    35.3550    48.2722 H            1 RES          0.0000
   1257 H           43.8721    35.6299    49.9635 H            1 RES          0.0000
   1258 C           42.0382    34.4678    49.8255 C            1 RES          0.0000
   1259 C           41.0472    35.6519    49.9822 C            1 RES          0.0000
   1260 H           41.5785    33.7290    49.1343 H            1 RES          0.0000
   1261 H           42.1746    34.0039    50.8262 H            1 RES          0.0000
   1262 H           40.8795    36.1272    48.9915 H            1 RES          0.0000
   1263 H           41.4751    36.4020    50.6821 H            1 RES          0.0000
   1264 C           39.6825    35.1940    50.5374 C            1 RES          0.0000
   1265 C           38.6989    36.3558    50.6952 C            1 RES          0.0000
   1266 H           37.7310    35.9813    51.0970 H            1 RES          0.0000
   1267 H           39.2304    34.4525    49.8445 H            1 RES          0.0000
   1268 H           39.8261    34.7273    51.5354 H            1 RES          0.0000
   1269 H           38.5068    36.8408    49.7151 H            1 RES          0.0000
   1270 H           39.1002    37.1145    51.3994 H            1 RES          0.0000
   1271 H            6.9977    52.4524    31.4161 H            1 RES          0.0000
   1272 C            6.0048    52.9042    31.1957 C            1 RES          0.0000
   1273 C            5.2337    53.1295    32.4984 C            1 RES          0.0000
   1274 H            6.1678    53.8668    30.6669 H            1 RES          0.0000
   1275 H            5.4477    52.2158    30.5261 H            1 RES          0.0000
   1276 H            5.8373    53.8036    33.1430 H            1 RES          0.0000
   1277 H            5.1144    52.1463    33.0017 H            1 RES          0.0000
   1278 C            3.8445    53.7560    32.2571 C            1 RES          0.0000
   1279 C            3.0697    53.9809    33.5829 C            1 RES          0.0000
   1280 H            3.9857    54.7305    31.7415 H            1 RES          0.0000
   1281 H            3.2630    53.0734    31.6003 H            1 RES          0.0000
   1282 H            3.6804    54.6529    34.2237 H            1 RES          0.0000
   1283 H            2.9571    52.9945    34.0823 H            1 RES          0.0000
   1284 C            1.6566    54.6138    33.3883 C            1 RES          0.0000
   1285 C            0.8751    54.8401    34.7319 C            1 RES          0.0000
   1286 H            1.7893    55.5921    32.8779 H            1 RES          0.0000
   1287 H            1.0662    53.9343    32.7366 H            1 RES          0.0000
   1288 H            1.4933    55.5095    35.3678 H            1 RES          0.0000
   1289 H            0.7698    53.8507    35.2263 H            1 RES          0.0000
   1290 C           60.9964    55.4797    34.5760 C            1 RES          0.0000
   1291 C           60.2021    55.7104    35.9330 C            1 RES          0.0000
   1292 H           61.1227    56.4608    34.0704 H            1 RES          0.0000
   1293 H           60.3993    54.8022    33.9289 H            1 RES          0.0000
   1294 H           60.8225    56.3793    36.5664 H            1 RES          0.0000
   1295 H           60.0989    54.7201    36.4249 H            1 RES          0.0000
   1296 C           58.7467    56.3562    35.8040 C            1 RES          0.0000
   1297 C           57.9388    56.5919    37.1718 C            1 RES          0.0000
   1298 H           58.8683    57.3393    35.3026 H            1 RES          0.0000
   1299 H           58.1447    55.6802    35.1612 H            1 RES          0.0000
   1300 H           58.5602    57.2609    37.8029 H            1 RES          0.0000
   1301 H           57.8363    55.6012    37.6614 H            1 RES          0.0000
   1302 C           56.4661    57.2436    37.0619 C            1 RES          0.0000
   1303 C           55.6423    57.4855    38.4385 C            1 RES          0.0000
   1304 H           56.5872    58.2271    36.5626 H            1 RES          0.0000
   1305 H           55.8633    56.5675    36.4211 H            1 RES          0.0000
   1306 H           56.2654    58.1541    39.0673 H            1 RES          0.0000
   1307 H           55.5414    56.4940    38.9258 H            1 RES          0.0000
   1308 C           54.1530    58.1429    38.3462 C            1 RES          0.0000
   1309 C           53.3095    58.3929    39.7283 C            1 RES          0.0000
   1310 H           54.2741    59.1267    37.8484 H            1 RES          0.0000
   1311 H           53.5500    57.4663    37.7068 H            1 RES          0.0000
   1312 H           53.9320    59.0621    40.3568 H            1 RES          0.0000
   1313 H           53.2077    57.4014    40.2152 H            1 RES          0.0000
   1314 C           51.8052    59.0555    39.6518 C            1 RES          0.0000
   1315 C           50.9427    59.3135    41.0375 C            1 RES          0.0000
   1316 H           51.9251    60.0401    39.1549 H            1 RES          0.0000
   1317 H           51.2007    58.3791    39.0132 H            1 RES          0.0000
   1318 H           51.5639    59.9835    41.6670 H            1 RES          0.0000
   1319 H           50.8394    58.3222    41.5253 H            1 RES          0.0000
   1320 C           49.4253    59.9805    40.9753 C            1 RES          0.0000
   1321 C           48.5461    60.2456    42.3634 C            1 RES          0.0000
   1322 H           49.5439    60.9661    40.4790 H            1 RES          0.0000
   1323 H           48.8192    59.3044    40.3372 H            1 RES          0.0000
   1324 H           49.1667    60.9163    42.9935 H            1 RES          0.0000
   1325 H           48.4419    59.2543    42.8518 H            1 RES          0.0000
   1326 C           47.0174    60.9165    42.3136 C            1 RES          0.0000
   1327 C           46.1230    61.1880    43.7042 C            1 RES          0.0000
   1328 H           47.1357     0.3453    41.8175 H            1 RES          0.0000
   1329 H           46.4108    60.2403    41.6757 H            1 RES          0.0000
   1330 H           46.7427     0.3020    44.3348 H            1 RES          0.0000
   1331 H           46.0177    60.1968    44.1930 H            1 RES          0.0000
   1332 C           44.5840     0.3053    43.6645 C            1 RES          0.0000
   1333 C           43.6767     0.5821    45.0578 C            1 RES          0.0000
   1334 H           44.7017     1.2918    43.1691 H            1 RES          0.0000
   1335 H           43.9766    61.1863    43.0272 H            1 RES          0.0000
   1336 H           44.2955     1.2541    45.6886 H            1 RES          0.0000
   1337 H           43.5703    61.1485    45.5468 H            1 RES          0.0000
   1338 C           42.1288     1.2599    45.0266 C            1 RES          0.0000
   1339 C           41.2108     1.5412    46.4226 C            1 RES          0.0000
   1340 H           42.2457     2.2468    44.5321 H            1 RES          0.0000
   1341 H           41.5204     0.5838    44.3903 H            1 RES          0.0000
   1342 H           41.8284     2.2138    47.0536 H            1 RES          0.0000
   1343 H           41.1030     0.5506    46.9117 H            1 RES          0.0000
   1344 C           39.6552     2.2217    46.3984 C            1 RES          0.0000
   1345 C           38.7287     2.5065    47.7967 C            1 RES          0.0000
   1346 H           39.7715     3.2090    45.9048 H            1 RES          0.0000
   1347 H           39.0461     1.5457    45.7629 H            1 RES          0.0000
   1348 H           39.3453     3.1797    48.4278 H            1 RES          0.0000
   1349 H           38.6198     1.5163    48.2859 H            1 RES          0.0000
   1350 C           37.1671     3.1892    47.7778 C            1 RES          0.0000
   1351 C           36.2340     3.4766    49.1782 C            1 RES          0.0000
   1352 H           37.2826     4.1768    47.2852 H            1 RES          0.0000
   1353 H           36.5571     2.5133    47.1433 H            1 RES          0.0000
   1354 H           36.8497     4.1503    49.8093 H            1 RES          0.0000
   1355 H           36.1241     2.4867    49.6674 H            1 RES          0.0000
   1356 C           34.6674     4.1612    49.1634 C            1 RES          0.0000
   1357 C           33.7289     4.4509    50.5655 C            1 RES          0.0000
   1358 H           34.7827     5.1490    48.6715 H            1 RES          0.0000
   1359 H           34.0571     3.4853    48.5295 H            1 RES          0.0000
   1360 H           34.3440     5.1249    51.1966 H            1 RES          0.0000
   1361 H           33.6183     3.4612    51.0546 H            1 RES          0.0000
   1362 C           32.1583     5.1368    50.5542 C            1 RES          0.0000
   1363 C           31.2154     5.4283    51.9573 C            1 RES          0.0000
   1364 H           32.2732     6.1249    50.0628 H            1 RES          0.0000
   1365 H           31.5476     4.4610    49.9208 H            1 RES          0.0000
   1366 H           31.8300     6.1027    52.5886 H            1 RES          0.0000
   1367 H           31.1043     4.4388    52.4466 H            1 RES          0.0000
   1368 C           29.6419     6.1153    51.9490 C            1 RES          0.0000
   1369 C           28.6956     6.4083    53.3528 C            1 RES          0.0000
   1370 H           29.7564     7.1036    51.4579 H            1 RES          0.0000
   1371 H           29.0306     5.4397    51.3159 H            1 RES          0.0000
   1372 H           29.3097     7.0829    53.9844 H            1 RES          0.0000
   1373 H           28.5839     5.4189    53.8424 H            1 RES          0.0000
   1374 C           27.1199     7.0961    53.3468 C            1 RES          0.0000
   1375 C           26.1710     7.3901    54.7511 C            1 RES          0.0000
   1376 H           27.2340     8.0846    52.8559 H            1 RES          0.0000
   1377 H           26.5082     6.4205    52.7139 H            1 RES          0.0000
   1378 H           26.7848     8.0649    55.3829 H            1 RES          0.0000
   1379 H           26.0589     6.4008    55.2408 H            1 RES          0.0000
   1380 C           24.5938     8.0784    54.7468 C            1 RES          0.0000
   1381 C           23.6430     8.3732    56.1513 C            1 RES          0.0000
   1382 H           24.7075     9.0671    54.2561 H            1 RES          0.0000
   1383 H           23.9817     7.4030    54.1140 H            1 RES          0.0000
   1384 H           24.2565     9.0481    56.7833 H            1 RES          0.0000
   1385 H           23.5307     7.3840    56.6412 H            1 RES          0.0000
   1386 C           22.0646     9.0619    56.1483 C            1 RES          0.0000
   1387 C           21.1125     9.3573    57.5531 C            1 RES          0.0000
   1388 H           22.1781    10.0507    55.6577 H            1 RES          0.0000
   1389 H           21.4523     8.3866    55.5156 H            1 RES          0.0000
   1390 H           21.7258    10.0323    58.1851 H            1 RES          0.0000
   1391 H           21.0000     8.3681    58.0431 H            1 RES          0.0000
   1392 C           19.5332    10.0463    57.5509 C            1 RES          0.0000
   1393 C           18.5802    10.3421    58.9559 C            1 RES          0.0000
   1394 H           19.6466    11.0352    57.0604 H            1 RES          0.0000
   1395 H           18.9208     9.3710    56.9183 H            1 RES          0.0000
   1396 H           19.1934    11.0172    59.5880 H            1 RES          0.0000
   1397 H           18.4675     9.3530    59.4460 H            1 RES          0.0000
   1398 C           17.0004    11.0313    58.9542 C            1 RES          0.0000
   1399 C           16.0468    11.3273    60.3595 C            1 RES          0.0000
   1400 H           17.1137    12.0202    58.4639 H            1 RES          0.0000
   1401 H           16.3878    10.3560    58.3218 H            1 RES          0.0000
   1402 H           16.6598    12.0024    60.9916 H            1 RES          0.0000
   1403 H           15.9339    10.3382    60.8495 H            1 RES          0.0000
   1404 C           14.4665    12.0167    60.3581 C            1 RES          0.0000
   1405 C           13.5125    12.3128     0.2062 C            1 RES          0.0000
   1406 H           14.5797    13.0056    59.8678 H            1 RES          0.0000
   1407 H           13.8538    11.3414    59.7258 H            1 RES          0.0000
   1408 H           14.1255    12.9880     0.8384 H            1 RES          0.0000
   1409 H           13.3996    11.3238     0.6963 H            1 RES          0.0000
   1410 C           11.9320    13.0023     0.2051 C            1 RES          0.0000
   1411 C           10.9778    13.2985     1.6105 C            1 RES          0.0000
   1412 H           12.0451    13.9912    61.2721 H            1 RES          0.0000
   1413 H           11.3193    12.3270    61.1301 H            1 RES          0.0000
   1414 H           11.5907    13.9737     2.2427 H            1 RES          0.0000
   1415 H           10.8648    12.3095     2.1007 H            1 RES          0.0000
   1416 C            9.3971    13.9880     1.6095 C            1 RES          0.0000
   1417 C            8.4428    14.2843     3.0150 C            1 RES          0.0000
   1418 H            9.5102    14.9770     1.1193 H            1 RES          0.0000
   1419 H            8.7843    13.3128     0.9773 H            1 RES          0.0000
   1420 H            9.0556    14.9595     3.6472 H            1 RES          0.0000
   1421 H            8.3298    13.2953     3.5051 H            1 RES          0.0000
   1422 C            6.8621    14.9738     3.0140 C            1 RES          0.0000
   1423 C            5.9078    15.2701     4.4194 C            1 RES          0.0000
   1424 H            6.9751    15.9628     2.5238 H            1 RES          0.0000
   1425 H            6.2493    14.2986     2.3818 H            1 RES          0.0000
   1426 H            6.5206    15.9454     5.0517 H            1 RES          0.0000
   1427 H            5.7947    14.2811     4.9097 H            1 RES          0.0000
   1428 C            4.3272    15.9596     4.4185 C            1 RES          0.0000
   1429 C            3.3729    16.2558     5.8239 C            1 RES          0.0000
   1430 H            4.4401    16.9486     3.9283 H            1 RES          0.0000
   1431 H            3.7142    15.2843     3.7863 H            1 RES          0.0000
   1432 H            3.9857    16.9311     6.4561 H            1 RES          0.0000
   1433 H            3.2598    15.2669     6.3142 H            1 RES          0.0000
   1434 C            1.7924    16.9452     5.8228 C            1 RES          0.0000
   1435 C            0.8384    17.2414     7.2281 C            1 RES          0.0000
   1436 H            1.9053    17.9343     5.3326 H            1 RES          0.0000
   1437 H            1.1794    16.2700     5.1907 H            1 RES          0.0000
   1438 H            1.4511    17.9168     7.8604 H            1 RES          0.0000
   1439 H            0.7253    16.2525     7.7185 H            1 RES          0.0000
   1440 C           60.8154    17.9307     7.2268 C            1 RES          0.0000
   1441 C           59.8618    18.2268     8.6321 C            1 RES          0.0000
   1442 H           60.9282    18.9198     6.7367 H            1 RES          0.0000
   1443 H           60.2024    17.2556     6.5947 H            1 RES          0.0000
   1444 H           60.4744    18.9021     9.2644 H            1 RES          0.0000
   1445 H           59.7486    17.2379     9.1225 H            1 RES          0.0000
   1446 C           58.2820    18.9159     8.6304 C            1 RES          0.0000
   1447 C           57.3290    19.2117    10.0354 C            1 RES          0.0000
   1448 H           58.3946    19.9050     8.1402 H            1 RES          0.0000
   1449 H           57.6688    18.2408     7.9983 H            1 RES          0.0000
   1450 H           57.9415    19.8871    10.6679 H            1 RES          0.0000
   1451 H           57.2157    18.2229    10.5260 H            1 RES          0.0000
   1452 C           55.7497    19.9006    10.0332 C            1 RES          0.0000
   1453 C           54.7977    20.1961    11.4380 C            1 RES          0.0000
   1454 H           55.8622    20.8898     9.5431 H            1 RES          0.0000
   1455 H           55.1364    19.2256     9.4013 H            1 RES          0.0000
   1456 H           55.4099    20.8715    12.0706 H            1 RES          0.0000
   1457 H           54.6842    19.2073    11.9287 H            1 RES          0.0000
   1458 C           53.2193    20.8847    11.4350 C            1 RES          0.0000
   1459 C           52.2685    21.1795    12.8396 C            1 RES          0.0000
   1460 H           53.3315    21.8739    10.9450 H            1 RES          0.0000
   1461 H           52.6057    20.2097    10.8031 H            1 RES          0.0000
   1462 H           52.8806    21.8551    13.4722 H            1 RES          0.0000
   1463 H           52.1548    20.1909    13.3304 H            1 RES          0.0000
   1464 C           50.6913    21.8677    12.8353 C            1 RES          0.0000
   1465 C           49.7424    22.1619    14.2395 C            1 RES          0.0000
   1466 H           50.8032    22.8570    12.3454 H            1 RES          0.0000
   1467 H           50.0775    21.1929    12.2036 H            1 RES          0.0000
   1468 H           50.3541    22.8375    14.8723 H            1 RES          0.0000
   1469 H           49.6284    21.1734    14.7305 H            1 RES          0.0000
   1470 C           48.1667    22.8495    14.2335 C            1 RES          0.0000
   1471 C           47.2204    23.1426    15.6373 C            1 RES          0.0000
   1472 H           48.2783    23.8389    13.7439 H            1 RES          0.0000
   1473 H           47.5526    22.1749    13.6020 H            1 RES          0.0000
   1474 H           47.8317    23.8183    16.2704 H            1 RES          0.0000
   1475 H           47.1060    22.1543    16.1285 H            1 RES          0.0000
   1476 C           45.6469    23.8295    15.6290 C            1 RES          0.0000
   1477 C           44.7040    24.1211    17.0321 C            1 RES          0.0000
   1478 H           45.7580    24.8190    15.1396 H            1 RES          0.0000
   1479 H           45.0323    23.1550    14.9978 H            1 RES          0.0000
   1480 H           45.3148    24.7970    17.6655 H            1 RES          0.0000
   1481 H           44.5892    23.1331    17.5237 H            1 RES          0.0000
   1482 C           43.1335    24.8070    17.0208 C            1 RES          0.0000
   1483 C           42.1950    25.0968    18.4229 C            1 RES          0.0000
   1484 H           43.2440    25.7966    16.5316 H            1 RES          0.0000
   1485 H           42.5184    24.1328    16.3898 H            1 RES          0.0000
   1486 H           42.8053    25.7727    19.0567 H            1 RES          0.0000
   1487 H           42.0797    24.1090    18.9149 H            1 RES          0.0000
   1488 C           40.6284    25.7812    18.4080 C            1 RES          0.0000
   1489 C           39.6953    26.0688    19.8084 C            1 RES          0.0000
   1490 H           40.7382    26.7711    17.9187 H            1 RES          0.0000
   1491 H           40.0127    25.1074    17.7770 H            1 RES          0.0000
   1492 H           40.3053    26.7447    20.4428 H            1 RES          0.0000
   1493 H           39.5798    25.0812    20.3011 H            1 RES          0.0000
   1494 C           38.1337    26.7514    19.7895 C            1 RES          0.0000
   1495 C           37.2072    27.0363    21.1877 C            1 RES          0.0000
   1496 H           38.2426    27.7416    19.3002 H            1 RES          0.0000
   1497 H           37.5171    26.0782    19.1584 H            1 RES          0.0000
   1498 H           37.8164    27.7124    21.8232 H            1 RES          0.0000
   1499 H           37.0910    26.0490    21.6814 H            1 RES          0.0000
   1500 C           35.6517    27.7167    21.1635 C            1 RES          0.0000
   1501 C           34.7337    27.9981    22.5594 C            1 RES          0.0000
   1502 H           35.7594    28.7073    20.6743 H            1 RES          0.0000
   1503 H           35.0341    27.0441    20.5325 H            1 RES          0.0000
   1504 H           35.3420    28.6743    23.1958 H            1 RES          0.0000
   1505 H           34.6168    27.0112    23.0540 H            1 RES          0.0000
   1506 C           33.1858    28.6758    22.5282 C            1 RES          0.0000
   1507 C           32.2785    28.9527    23.9215 C            1 RES          0.0000
   1508 H           33.2922    29.6667    22.0392 H            1 RES          0.0000
   1509 H           32.5670    28.0038    21.8975 H            1 RES          0.0000
   1510 H           32.8860    29.6289    24.5587 H            1 RES          0.0000
   1511 H           32.1609    27.9663    24.4170 H            1 RES          0.0000
   1512 C           30.7396    29.6272    23.8818 C            1 RES          0.0000
   1513 C           29.8452    29.8987    25.2724 C            1 RES          0.0000
   1514 H           30.8448    30.6183    23.3929 H            1 RES          0.0000
   1515 H           30.1198    28.9559    23.2512 H            1 RES          0.0000
   1516 H           30.4518    30.5750    25.9103 H            1 RES          0.0000
   1517 H           29.7269    28.9127    25.7685 H            1 RES          0.0000
   1518 C           28.3166    30.5696    25.2225 C            1 RES          0.0000
   1519 C           27.4374    30.8347    26.6107 C            1 RES          0.0000
   1520 H           28.4208    31.5609    24.7341 H            1 RES          0.0000
   1521 H           27.6959    29.8989    24.5924 H            1 RES          0.0000
   1522 H           28.0435    31.5108    27.2487 H            1 RES          0.0000
   1523 H           27.3188    29.8491    27.1070 H            1 RES          0.0000
   1524 C           25.9200    31.5017    26.5485 C            1 RES          0.0000
   1525 C           25.0576    31.7597    27.9341 C            1 RES          0.0000
   1526 H           26.0233    32.4930    26.0606 H            1 RES          0.0000
   1527 H           25.2988    30.8317    25.9189 H            1 RES          0.0000
   1528 H           25.6620    32.4361    28.5727 H            1 RES          0.0000
   1529 H           24.9376    30.7751    28.4310 H            1 RES          0.0000
   1530 C           23.5532    32.4223    27.8576 C            1 RES          0.0000
   1531 C           22.7098    32.6722    29.2397 C            1 RES          0.0000
   1532 H           23.6550    33.4137    27.3707 H            1 RES          0.0000
   1533 H           22.9307    31.7531    27.2291 H            1 RES          0.0000
   1534 H           23.3129    33.3488    29.8792 H            1 RES          0.0000
   1535 H           22.5887    31.6884    29.7375 H            1 RES          0.0000
   1536 C           21.2205    33.3296    29.1474 C            1 RES          0.0000
   1537 C           20.3967    33.5714    30.5240 C            1 RES          0.0000
   1538 H           21.3215    34.3211    28.6602 H            1 RES          0.0000
   1539 H           20.5975    32.6611    28.5185 H            1 RES          0.0000
   1540 H           20.9995    34.2475    31.1649 H            1 RES          0.0000
   1541 H           20.2757    32.5879    31.0233 H            1 RES          0.0000
   1542 C           18.9241    34.2231    30.4141 C            1 RES          0.0000
   1543 C           18.1162    34.4587    31.7819 C            1 RES          0.0000
   1544 H           19.0266    35.2139    29.9246 H            1 RES          0.0000
   1545 H           18.3028    33.5542    29.7829 H            1 RES          0.0000
   1546 H           18.7182    35.1347    32.4248 H            1 RES          0.0000
   1547 H           17.9945    33.4755    32.2832 H            1 RES          0.0000
   1548 C           16.6608    35.1045    31.6528 C            1 RES          0.0000
   1549 C           15.8664    35.3350    33.0098 C            1 RES          0.0000
   1550 H           16.7640    36.0949    31.1611 H            1 RES          0.0000
   1551 H           16.0404    34.4357    31.0194 H            1 RES          0.0000
   1552 H           16.4634    36.0124    33.6570 H            1 RES          0.0000
   1553 H           15.7401    34.3539    33.5154 H            1 RES          0.0000
   1554 C           14.4305    35.9746    32.8539 C            1 RES          0.0000
   1555 C           13.6489    36.2007    34.1974 C            1 RES          0.0000
   1556 H           14.5359    36.9641    32.3596 H            1 RES          0.0000
   1557 H           13.8124    35.3053    32.2179 H            1 RES          0.0000
   1558 H           14.2392    36.8802    34.8494 H            1 RES          0.0000
   1559 H           13.5162    35.2224    34.7077 H            1 RES          0.0000
   1560 C           12.2358    36.8336    34.0028 C            1 RES          0.0000
   1561 C           11.4608    37.0583    35.3285 C            1 RES          0.0000
   1562 H           12.3485    37.8201    33.5035 H            1 RES          0.0000
   1563 H           11.6252    36.1617    33.3618 H            1 RES          0.0000
   1564 H           12.0423    37.7408    35.9855 H            1 RES          0.0000
   1565 H           11.3196    36.0837    35.8439 H            1 RES          0.0000
   1566 C           10.0717    37.6848    35.0871 C            1 RES          0.0000
   1567 C            9.3004    37.9098    36.3897 C            1 RES          0.0000
   1568 H            8.3075    38.3617    36.1692 H            1 RES          0.0000
   1569 H           10.1910    38.6681    34.5840 H            1 RES          0.0000
   1570 H            9.4681    37.0108    34.4423 H            1 RES          0.0000
   1571 H            9.8573    38.5982    37.0594 H            1 RES          0.0000
   1572 H            9.1373    36.9472    36.9183 H            1 RES          0.0000
   1573 H           12.2788    53.8728    52.5902 H            1 RES          0.0000
   1574 C           13.1355    54.3368    53.1281 C            1 RES          0.0000
   1575 C           12.9125    55.8451    53.2613 C            1 RES          0.0000
   1576 H           13.2175    53.8642    54.1294 H            1 RES          0.0000
   1577 H           14.0632    54.1282    52.5549 H            1 RES          0.0000
   1578 H           11.9655    56.0045    53.8199 H            1 RES          0.0000
   1579 H           12.8145    56.2696    52.2393 H            1 RES          0.0000
   1580 C           14.0707    56.5464    54.0010 C            1 RES          0.0000
   1581 C           13.8365    58.0750    54.1316 C            1 RES          0.0000
   1582 H           14.1602    56.0982    55.0142 H            1 RES          0.0000
   1583 H           15.0090    56.3633    53.4339 H            1 RES          0.0000
   1584 H           12.8865    58.2270    54.6880 H            1 RES          0.0000
   1585 H           13.7360    58.4923    53.1064 H            1 RES          0.0000
   1586 C           14.9840    58.8281    54.8742 C            1 RES          0.0000
   1587 C           14.7439    60.3748    55.0047 C            1 RES          0.0000
   1588 H           15.0765    58.3893    55.8911 H            1 RES          0.0000
   1589 H           15.9257    58.6545    54.3101 H            1 RES          0.0000
   1590 H           13.7914    60.5182    55.5586 H            1 RES          0.0000
   1591 H           14.6411    60.7835    53.9766 H            1 RES          0.0000
   1592 C           15.8847    61.1726    55.7512 C            1 RES          0.0000
   1593 C           15.6458     1.1808    55.8854 C            1 RES          0.0000
   1594 H           15.9789    60.7417    56.7709 H            1 RES          0.0000
   1595 H           16.8285    61.0070    55.1891 H            1 RES          0.0000
   1596 H           14.6933     1.3208    56.4389 H            1 RES          0.0000
   1597 H           15.5432     1.5861    54.8566 H            1 RES          0.0000
   1598 C           16.7847     2.0120    56.6365 C            1 RES          0.0000
   1599 C           16.5493     3.5945    56.7755 C            1 RES          0.0000
   1600 H           16.8797     1.5874    57.6580 H            1 RES          0.0000
   1601 H           17.7296     1.8528    56.0757 H            1 RES          0.0000
   1602 H           15.5973     3.7322    57.3292 H            1 RES          0.0000
   1603 H           16.4475     3.9976    55.7464 H            1 RES          0.0000
   1604 C           17.6891     4.4516    57.5314 C            1 RES          0.0000
   1605 C           17.4600     6.0512    57.6766 C            1 RES          0.0000
   1606 H           17.7833     4.0291    58.5531 H            1 RES          0.0000
   1607 H           18.6335     4.2945    56.9703 H            1 RES          0.0000
   1608 H           16.5082     6.1860    58.2301 H            1 RES          0.0000
   1609 H           17.3585     6.4515    56.6470 H            1 RES          0.0000
   1610 C           18.6014     6.9326    58.4374 C            1 RES          0.0000
   1611 C           18.3833     8.5491    58.5913 C            1 RES          0.0000
   1612 H           18.6946     6.5113    59.4592 H            1 RES          0.0000
   1613 H           19.5451     6.7768    57.8758 H            1 RES          0.0000
   1614 H           17.4320     8.6841    59.1456 H            1 RES          0.0000
   1615 H           18.2827     8.9496    57.5618 H            1 RES          0.0000
   1616 C           19.5262     9.4525    59.3566 C            1 RES          0.0000
   1617 C           19.3198    11.0839    59.5193 C            1 RES          0.0000
   1618 H           19.6196     9.0326    60.3792 H            1 RES          0.0000
   1619 H           20.4704     9.2982    58.7951 H            1 RES          0.0000
   1620 H           18.3687    11.2204    60.0743 H            1 RES          0.0000
   1621 H           19.2197    11.4861    58.4900 H            1 RES          0.0000
   1622 C           20.4635    12.0068    60.2883 C            1 RES          0.0000
   1623 C           20.2678    13.6508    60.4589 C            1 RES          0.0000
   1624 H           20.5575    11.5882    61.3119 H            1 RES          0.0000
   1625 H           21.4087    11.8539    59.7271 H            1 RES          0.0000
   1626 H           19.3168    13.7883    61.0145 H            1 RES          0.0000
   1627 H           20.1681    14.0540    59.4295 H            1 RES          0.0000
   1628 C           21.4123    14.5906    61.2311 C            1 RES          0.0000
   1629 C           21.2262    16.2463    61.4088 C            1 RES          0.0000
   1630 H           21.5064    14.1724     0.6979 H            1 RES          0.0000
   1631 H           22.3578    14.4381    60.6699 H            1 RES          0.0000
   1632 H           20.2755    16.3847     0.4078 H            1 RES          0.0000
   1633 H           21.1271    16.6505    60.3796 H            1 RES          0.0000
   1634 C           22.3721    17.2005     0.6270 C            1 RES          0.0000
   1635 C           22.1938    18.8666     0.8105 C            1 RES          0.0000
   1636 H           22.4662    16.7832     1.6514 H            1 RES          0.0000
   1637 H           23.3179    17.0491     0.0657 H            1 RES          0.0000
   1638 H           21.2437    19.0057     1.3675 H            1 RES          0.0000
   1639 H           22.0955    19.2716    61.3389 H            1 RES          0.0000
   1640 C           23.3411    19.8332     1.5888 C            1 RES          0.0000
   1641 C           23.1690    21.5081     1.7772 C            1 RES          0.0000
   1642 H           23.4351    19.4171     2.6136 H            1 RES          0.0000
   1643 H           24.2870    19.6830     1.0276 H            1 RES          0.0000
   1644 H           22.2195    21.6482     2.3349 H            1 RES          0.0000
   1645 H           23.0715    21.9141     0.7487 H            1 RES          0.0000
   1646 C           24.3176    22.4850     2.5579 C            1 RES          0.0000
   1647 C           24.1503    24.1672     2.7501 C            1 RES          0.0000
   1648 H           24.4115    22.0701     3.5831 H            1 RES          0.0000
   1649 H           25.2636    22.3361     1.9968 H            1 RES          0.0000
   1650 H           23.2015    24.3081     3.3084 H            1 RES          0.0000
   1651 H           24.0536    24.5740     1.7221 H            1 RES          0.0000
   1652 C           25.3002    25.1522     3.5329 C            1 RES          0.0000
   1653 C           25.1363    26.8403     3.7279 C            1 RES          0.0000
   1654 H           25.3940    24.7385     4.5583 H            1 RES          0.0000
   1655 H           26.2461    25.0045     2.9718 H            1 RES          0.0000
   1656 H           24.1882    26.9817     4.2868 H            1 RES          0.0000
   1657 H           25.0404    27.2477     2.7002 H            1 RES          0.0000
   1658 C           26.2874    27.8316     4.5124 C            1 RES          0.0000
   1659 C           26.1266    29.5244     4.7098 C            1 RES          0.0000
   1660 H           26.3810    27.4186     5.5379 H            1 RES          0.0000
   1661 H           27.2333    27.6846     3.9513 H            1 RES          0.0000
   1662 H           25.1789    29.6662     5.2690 H            1 RES          0.0000
   1663 H           26.0312    29.9322     3.6823 H            1 RES          0.0000
   1664 C           27.2783    30.5210     5.4955 C            1 RES          0.0000
   1665 C           27.1201    32.2175     5.6949 C            1 RES          0.0000
   1666 H           27.3719    30.1086     6.5213 H            1 RES          0.0000
   1667 H           28.2243    30.3747     4.9345 H            1 RES          0.0000
   1668 H           26.1726    32.3598     6.2545 H            1 RES          0.0000
   1669 H           27.0250    32.6258     4.6677 H            1 RES          0.0000
   1670 C           28.2722    33.2183     6.4816 C            1 RES          0.0000
   1671 C           28.1160    34.9175     6.6826 C            1 RES          0.0000
   1672 H           28.3659    32.8065     7.5076 H            1 RES          0.0000
   1673 H           29.2183    33.0725     5.9207 H            1 RES          0.0000
   1674 H           27.1687    35.0602     7.2424 H            1 RES          0.0000
   1675 H           28.0212    35.3263     5.6555 H            1 RES          0.0000
   1676 C           29.2684    35.9215     7.4699 C            1 RES          0.0000
   1677 C           29.1138    37.6226     7.6721 C            1 RES          0.0000
   1678 H           29.3622    35.5101     8.4961 H            1 RES          0.0000
   1679 H           30.2147    35.7761     6.9091 H            1 RES          0.0000
   1680 H           28.1666    37.7658     8.2321 H            1 RES          0.0000
   1681 H           29.0191    38.0319     6.6451 H            1 RES          0.0000
   1682 C           30.2662    38.6290     8.4599 C            1 RES          0.0000
   1683 C           30.1128    40.3316     8.6629 C            1 RES          0.0000
   1684 H           30.3602    38.2179     9.4862 H            1 RES          0.0000
   1685 H           31.2127    38.4840     7.8992 H            1 RES          0.0000
   1686 H           29.1657    40.4750     9.2230 H            1 RES          0.0000
   1687 H           30.0183    40.7411     7.6359 H            1 RES          0.0000
   1688 C           31.2654    41.3396     9.4510 C            1 RES          0.0000
   1689 C           31.1128    43.0433     9.6547 C            1 RES          0.0000
   1690 H           31.3594    40.9287    10.4775 H            1 RES          0.0000
   1691 H           32.2120    41.1948     8.8904 H            1 RES          0.0000
   1692 H           30.1658    43.1869    10.2149 H            1 RES          0.0000
   1693 H           31.0184    43.4530     8.6278 H            1 RES          0.0000
   1694 C           32.2655    44.0525    10.4431 C            1 RES          0.0000
   1695 C           32.1134    45.7569    10.6471 C            1 RES          0.0000
   1696 H           32.3595    43.6418    11.4696 H            1 RES          0.0000
   1697 H           33.2121    43.9079     9.8825 H            1 RES          0.0000
   1698 H           31.1665    45.9007    11.2074 H            1 RES          0.0000
   1699 H           32.0190    46.1668     9.6203 H            1 RES          0.0000
   1700 C           33.2662    46.7669    11.4357 C            1 RES          0.0000
   1701 C           33.1144    48.4719    11.6400 C            1 RES          0.0000
   1702 H           33.3603    46.3564    12.4623 H            1 RES          0.0000
   1703 H           34.2128    46.6225    10.8752 H            1 RES          0.0000
   1704 H           32.1676    48.6158    12.2004 H            1 RES          0.0000
   1705 H           33.0202    48.8818    10.6132 H            1 RES          0.0000
   1706 C           34.2673    49.4824    12.4287 C            1 RES          0.0000
   1707 C           34.1158    51.1877    12.6332 C            1 RES          0.0000
   1708 H           34.3614    49.0720    13.4554 H            1 RES          0.0000
   1709 H           35.2140    49.3381    11.8682 H            1 RES          0.0000
   1710 H           33.1690    51.3317    13.1936 H            1 RES          0.0000
   1711 H           34.0215    51.5977    11.6065 H            1 RES          0.0000
   1712 C           35.2687    52.1986    13.4220 C            1 RES          0.0000
   1713 C           35.1173    53.9041    13.6266 C            1 RES          0.0000
   1714 H           35.3628    51.7883    14.4487 H            1 RES          0.0000
   1715 H           36.2154    52.0544    12.8615 H            1 RES          0.0000
   1716 H           34.1705    54.0481    14.1870 H            1 RES          0.0000
   1717 H           35.0231    54.3142    12.5999 H            1 RES          0.0000
   1718 C           36.2702    54.9151    14.4154 C            1 RES          0.0000
   1719 C           36.1189    56.6207    14.6201 C            1 RES          0.0000
   1720 H           36.3644    54.5049    15.4421 H            1 RES          0.0000
   1721 H           37.2169    54.7710    13.8549 H            1 RES          0.0000
   1722 H           35.1721    56.7648    15.1805 H            1 RES          0.0000
   1723 H           36.0247    57.0309    13.5934 H            1 RES          0.0000
   1724 C           37.2718    57.6319    15.4089 C            1 RES          0.0000
   1725 C           37.1205    59.3374    15.6135 C            1 RES          0.0000
   1726 H           37.3660    57.2217    16.4356 H            1 RES          0.0000
   1727 H           38.2186    57.4878    14.8484 H            1 RES          0.0000
   1728 H           36.1737    59.4816    16.1740 H            1 RES          0.0000
   1729 H           37.0263    59.7477    14.5868 H            1 RES          0.0000
   1730 C           38.2734    60.3485    16.4023 C            1 RES          0.0000
   1731 C           38.1220     0.4968    16.6069 C            1 RES          0.0000
   1732 H           38.3676    59.9384    17.4290 H            1 RES          0.0000
   1733 H           39.2202    60.2045    15.8419 H            1 RES          0.0000
   1734 H           37.1753     0.6409    17.1675 H            1 RES          0.0000
   1735 H           38.0278     0.9070    15.5803 H            1 RES          0.0000
   1736 C           39.2749     1.5076    17.3957 C            1 RES          0.0000
   1737 C           39.1234     3.2129    17.6002 C            1 RES          0.0000
   1738 H           39.3692     1.0976    18.4224 H            1 RES          0.0000
   1739 H           40.2217     1.3637    16.8352 H            1 RES          0.0000
   1740 H           38.1767     3.3572    18.1607 H            1 RES          0.0000
   1741 H           39.0292     3.6233    16.5736 H            1 RES          0.0000
   1742 C           40.2763     4.2235    18.3888 C            1 RES          0.0000
   1743 C           40.1244     5.9285    18.5932 C            1 RES          0.0000
   1744 H           40.3706     3.8135    19.4156 H            1 RES          0.0000
   1745 H           41.2231     4.0796    17.8284 H            1 RES          0.0000
   1746 H           39.1778     6.0728    19.1538 H            1 RES          0.0000
   1747 H           40.0303     6.3389    17.5666 H            1 RES          0.0000
   1748 C           41.2773     6.9385    19.3817 C            1 RES          0.0000
   1749 C           41.1251     8.6429    19.5858 C            1 RES          0.0000
   1750 H           41.3717     6.5286    20.4085 H            1 RES          0.0000
   1751 H           42.2241     6.7947    18.8213 H            1 RES          0.0000
   1752 H           40.1785     8.7874    20.1464 H            1 RES          0.0000
   1753 H           41.0310     9.0536    18.5592 H            1 RES          0.0000
   1754 C           42.2778     9.6521    20.3741 C            1 RES          0.0000
   1755 C           42.1252    11.3558    20.5778 C            1 RES          0.0000
   1756 H           42.3724     9.2424    21.4010 H            1 RES          0.0000
   1757 H           43.2248     9.5085    19.8138 H            1 RES          0.0000
   1758 H           41.1786    11.5005    21.1385 H            1 RES          0.0000
   1759 H           42.0310    11.7666    19.5513 H            1 RES          0.0000
   1760 C           43.2778    12.3638    21.3658 C            1 RES          0.0000
   1761 C           43.1243    14.0664    21.5689 C            1 RES          0.0000
   1762 H           43.3724    11.9543    22.3927 H            1 RES          0.0000
   1763 H           44.2248    12.2205    20.8056 H            1 RES          0.0000
   1764 H           42.1779    14.2114    22.1296 H            1 RES          0.0000
   1765 H           43.0302    14.4775    20.5425 H            1 RES          0.0000
   1766 C           44.2768    15.0728    22.3566 C            1 RES          0.0000
   1767 C           44.1222    16.7739    22.5588 C            1 RES          0.0000
   1768 H           44.3716    14.6635    23.3836 H            1 RES          0.0000
   1769 H           45.2239    14.9296    21.7965 H            1 RES          0.0000
   1770 H           43.1759    16.9192    23.1197 H            1 RES          0.0000
   1771 H           44.0282    17.1853    21.5326 H            1 RES          0.0000
   1772 C           45.2745    17.7779    23.3460 C            1 RES          0.0000
   1773 C           45.1183    19.4771    23.5471 C            1 RES          0.0000
   1774 H           45.3695    17.3691    24.3731 H            1 RES          0.0000
   1775 H           46.2218    17.6352    22.7861 H            1 RES          0.0000
   1776 H           44.1722    19.6228    24.1081 H            1 RES          0.0000
   1777 H           45.0245    19.8889    22.5211 H            1 RES          0.0000
   1778 C           46.2705    20.4778    24.3337 C            1 RES          0.0000
   1779 C           46.1121    22.1743    24.5332 C            1 RES          0.0000
   1780 H           46.3656    20.0695    25.3609 H            1 RES          0.0000
   1781 H           47.2178    20.3357    23.7740 H            1 RES          0.0000
   1782 H           45.1663    22.3206    25.0943 H            1 RES          0.0000
   1783 H           46.0184    22.5867    23.5075 H            1 RES          0.0000
   1784 C           47.2640    23.1709    25.3189 C            1 RES          0.0000
   1785 C           47.1031    24.8637    25.5164 C            1 RES          0.0000
   1786 H           47.3595    22.7630    26.3463 H            1 RES          0.0000
   1787 H           48.2116    23.0292    24.7595 H            1 RES          0.0000
   1788 H           46.1573    25.0107    26.0775 H            1 RES          0.0000
   1789 H           47.0094    25.2767    24.4908 H            1 RES          0.0000
   1790 C           48.2542    25.8550    26.3008 C            1 RES          0.0000
   1791 C           48.0903    27.5430    26.4959 C            1 RES          0.0000
   1792 H           48.3502    25.4475    27.3284 H            1 RES          0.0000
   1793 H           49.2022    25.7136    25.7418 H            1 RES          0.0000
   1794 H           47.1444    27.6906    27.0570 H            1 RES          0.0000
   1795 H           47.9964    27.9567    25.4705 H            1 RES          0.0000
   1796 C           49.2403    28.5279    27.2786 C            1 RES          0.0000
   1797 C           49.0729    30.2101    27.4709 C            1 RES          0.0000
   1798 H           49.3370    28.1211    28.3066 H            1 RES          0.0000
   1799 H           50.1890    28.3871    26.7202 H            1 RES          0.0000
   1800 H           48.1270    30.3590    28.0320 H            1 RES          0.0000
   1801 H           48.9789    30.6250    26.4457 H            1 RES          0.0000
   1802 C           50.2216    31.1869    28.2515 C            1 RES          0.0000
   1803 C           50.0494    32.8619    28.4400 C            1 RES          0.0000
   1804 H           50.3191    30.7809    29.2800 H            1 RES          0.0000
   1805 H           51.1710    31.0469    27.6938 H            1 RES          0.0000
   1806 H           49.1036    33.0120    29.0012 H            1 RES          0.0000
   1807 H           49.9554    33.2780    27.4152 H            1 RES          0.0000
   1808 C           51.1968    33.8284    29.2182 C            1 RES          0.0000
   1809 C           51.0184    35.4945    29.4018 C            1 RES          0.0000
   1810 H           51.2951    33.4234    30.2471 H            1 RES          0.0000
   1811 H           52.1468    33.6893    28.6612 H            1 RES          0.0000
   1812 H           50.0727    35.6458    29.9631 H            1 RES          0.0000
   1813 H           50.9243    35.9117    28.3774 H            1 RES          0.0000
   1814 C           52.1643    36.4486    30.1772 C            1 RES          0.0000
   1815 C           51.9782    38.1043    30.3549 C            1 RES          0.0000
   1816 H           52.2635    36.0444    31.2064 H            1 RES          0.0000
   1817 H           53.1150    36.3103    29.6210 H            1 RES          0.0000
   1818 H           51.0327    38.2567    30.9162 H            1 RES          0.0000
   1819 H           51.8841    38.5225    29.3309 H            1 RES          0.0000
   1820 C           53.1227    39.0440    31.1272 C            1 RES          0.0000
   1821 C           52.9270    40.6880    31.2977 C            1 RES          0.0000
   1822 H           53.2224    38.6408    32.1565 H            1 RES          0.0000
   1823 H           54.0737    38.9066    30.5715 H            1 RES          0.0000
   1824 H           51.9818    40.8409    31.8589 H            1 RES          0.0000
   1825 H           52.8330    41.1066    30.2742 H            1 RES          0.0000
   1826 C           54.0707    41.6109    32.0667 C            1 RES          0.0000
   1827 C           53.8643    43.2422    32.2294 C            1 RES          0.0000
   1828 H           54.1708    41.2087    33.0960 H            1 RES          0.0000
   1829 H           55.0217    41.4743    31.5116 H            1 RES          0.0000
   1830 H           52.9200    43.3966    32.7909 H            1 RES          0.0000
   1831 H           53.7708    43.6622    31.2068 H            1 RES          0.0000
   1832 C           55.0071    44.1456    32.9947 C            1 RES          0.0000
   1833 C           54.7890    45.7621    33.1485 C            1 RES          0.0000
   1834 H           55.1077    43.7451    34.0242 H            1 RES          0.0000
   1835 H           55.9584    44.0107    32.4404 H            1 RES          0.0000
   1836 H           53.8453    45.9179    33.7101 H            1 RES          0.0000
   1837 H           54.6958    46.1834    32.1267 H            1 RES          0.0000
   1838 C           55.9304    46.6435    33.9094 C            1 RES          0.0000
   1839 C           55.7012    48.2431    34.0544 C            1 RES          0.0000
   1840 H           56.0318    46.2433    34.9390 H            1 RES          0.0000
   1841 H           56.8822    46.5087    33.3559 H            1 RES          0.0000
   1842 H           54.7569    48.4002    34.6155 H            1 RES          0.0000
   1843 H           55.6071    48.6655    33.0327 H            1 RES          0.0000
   1844 C           56.8410    49.1002    34.8104 C            1 RES          0.0000
   1845 C           56.6056    50.6827    34.9492 C            1 RES          0.0000
   1846 H           56.9428    48.6971    35.8395 H            1 RES          0.0000
   1847 H           57.7931    48.9624    34.2567 H            1 RES          0.0000
   1848 H           55.6608    50.8419    35.5099 H            1 RES          0.0000
   1849 H           56.5108    51.1071    33.9276 H            1 RES          0.0000
   1850 C           57.7445    51.5138    35.7003 C            1 RES          0.0000
   1851 C           57.5058    53.0793    35.8343 C            1 RES          0.0000
   1852 H           57.8471    51.1086    36.7291 H            1 RES          0.0000
   1853 H           58.6971    51.3737    35.1468 H            1 RES          0.0000
   1854 H           56.5619    53.2450    36.3964 H            1 RES          0.0000
   1855 H           57.4116    53.5100    34.8147 H            1 RES          0.0000
   1856 C           58.6466    53.8770    36.5809 C            1 RES          0.0000
   1857 C           58.4067    55.4238    36.7112 C            1 RES          0.0000
   1858 H           58.7492    53.4684    37.6090 H            1 RES          0.0000
   1859 H           59.5991    53.7335    36.0271 H            1 RES          0.0000
   1860 H           57.4649    55.5975    37.2752 H            1 RES          0.0000
   1861 H           58.3143    55.8624    35.6942 H            1 RES          0.0000
   1862 C           59.5542    56.1768    37.4538 C            1 RES          0.0000
   1863 C           59.3201    57.7054    37.5842 C            1 RES          0.0000
   1864 H           59.6545    55.7596    38.4790 H            1 RES          0.0000
   1865 H           60.5041    56.0245    36.8974 H            1 RES          0.0000
   1866 H           58.3818    57.8888    38.1512 H            1 RES          0.0000
   1867 H           59.2308    58.1535    36.5709 H            1 RES          0.0000
   1868 C           60.4784    58.4066    38.3239 C            1 RES          0.0000
   1869 C           60.2556    59.9150    38.4569 C            1 RES          0.0000
   1870 H           61.1123    60.3788    38.9948 H            1 RES          0.0000
   1871 H           60.5763    57.9822    39.3459 H            1 RES          0.0000
   1872 H           61.4254    58.2470    37.7653 H            1 RES          0.0000
   1873 H           59.3279    60.1237    39.0300 H            1 RES          0.0000
   1874 H           60.1738    60.3875    37.4555 H            1 RES          0.0000
   1875 H           13.8151    10.3430    50.6747 H            1 RES          0.0000
   1876 C           14.8774    10.5924    50.8949 C            1 RES          0.0000
   1877 C           15.7774    10.1061    49.7544 C            1 RES          0.0000
   1878 H           15.1581    10.1051    51.8526 H            1 RES          0.0000
   1879 H           14.9602    11.6930    51.0141 H            1 RES          0.0000
   1880 H           15.6447     9.0067    49.6571 H            1 RES          0.0000
   1881 H           15.4423    10.6030    48.8192 H            1 RES          0.0000
   1882 C           17.2692    10.4266    49.9985 C            1 RES          0.0000
   1883 C           18.1739     9.9352    48.8345 C            1 RES          0.0000
   1884 H           17.5836     9.9326    50.9440 H            1 RES          0.0000
   1885 H           17.3747    11.5277    50.1060 H            1 RES          0.0000
   1886 H           18.0392     8.8356    48.7386 H            1 RES          0.0000
   1887 H           17.8281    10.4334    47.9034 H            1 RES          0.0000
   1888 C           19.6922    10.2420    49.0370 C            1 RES          0.0000
   1889 C           20.6041     9.7459    47.8565 C            1 RES          0.0000
   1890 H           20.0177     9.7460    49.9773 H            1 RES          0.0000
   1891 H           19.8050    11.3426    49.1419 H            1 RES          0.0000
   1892 H           20.4620     8.6474    47.7645 H            1 RES          0.0000
   1893 H           20.2488    10.2456    46.9300 H            1 RES          0.0000
   1894 C           22.1481    10.0393    48.0252 C            1 RES          0.0000
   1895 C           23.0736     9.5393    46.8329 C            1 RES          0.0000
   1896 H           22.4808     9.5413    48.9612 H            1 RES          0.0000
   1897 H           22.2678    11.1390    48.1266 H            1 RES          0.0000
   1898 H           22.9285     8.4416    46.7431 H            1 RES          0.0000
   1899 H           22.7157    10.0402    45.9086 H            1 RES          0.0000
   1900 C           24.6396     9.8230    46.9786 C            1 RES          0.0000
   1901 C           25.5801     9.3199    45.7772 C            1 RES          0.0000
   1902 H           24.9771     9.3232    47.9111 H            1 RES          0.0000
   1903 H           24.7650    10.9217    47.0764 H            1 RES          0.0000
   1904 H           25.4337     8.2231    45.6894 H            1 RES          0.0000
   1905 H           25.2219     9.8221    44.8547 H            1 RES          0.0000
   1906 C           27.1654     9.5968    45.9069 C            1 RES          0.0000
   1907 C           28.1228     9.0917    44.6981 C            1 RES          0.0000
   1908 H           27.5035     9.0959    46.8376 H            1 RES          0.0000
   1909 H           27.2923    10.6949    46.0027 H            1 RES          0.0000
   1910 H           27.9740     7.9957    44.6124 H            1 RES          0.0000
   1911 H           27.7630     9.5951    43.7775 H            1 RES          0.0000
   1912 C           29.7266     9.3627    44.8128 C            1 RES          0.0000
   1913 C           30.7052     8.8579    43.5997 C            1 RES          0.0000
   1914 H           30.0646     8.8606    45.7425 H            1 RES          0.0000
   1915 H           29.8540    10.4604    44.9073 H            1 RES          0.0000
   1916 H           30.5567     7.7619    43.5144 H            1 RES          0.0000
   1917 H           30.3461     9.3621    42.6793 H            1 RES          0.0000
   1918 C           32.3259     9.1237    43.7010 C            1 RES          0.0000
   1919 C           33.3251     8.6203    42.4851 C            1 RES          0.0000
   1920 H           32.6650     8.6211    44.6301 H            1 RES          0.0000
   1921 H           32.4546    10.2215    43.7948 H            1 RES          0.0000
   1922 H           33.1779     7.5239    42.3991 H            1 RES          0.0000
   1923 H           32.9675     9.1247    41.5638 H            1 RES          0.0000
   1924 C           34.9605     8.8815    42.5741 C            1 RES          0.0000
   1925 C           35.9779     8.3797    41.3563 C            1 RES          0.0000
   1926 H           35.3012     8.3785    43.5028 H            1 RES          0.0000
   1927 H           35.0908     9.9796    42.6673 H            1 RES          0.0000
   1928 H           35.8316     7.2828    41.2699 H            1 RES          0.0000
   1929 H           35.6212     8.8843    40.4344 H            1 RES          0.0000
   1930 C           37.6261     8.6369    41.4344 C            1 RES          0.0000
   1931 C           38.6600     8.1364    40.2148 C            1 RES          0.0000
   1932 H           37.9673     8.1335    42.3631 H            1 RES          0.0000
   1933 H           37.7569     9.7353    41.5275 H            1 RES          0.0000
   1934 H           38.5148     7.0393    40.1279 H            1 RES          0.0000
   1935 H           38.3043     8.6412    39.2923 H            1 RES          0.0000
   1936 C           40.3198     8.3906    40.2842 C            1 RES          0.0000
   1937 C           41.3677     7.8909    39.0623 C            1 RES          0.0000
   1938 H           40.6619     7.8867    41.2123 H            1 RES          0.0000
   1939 H           40.4514     9.4890    40.3765 H            1 RES          0.0000
   1940 H           41.2238     6.7937    38.9754 H            1 RES          0.0000
   1941 H           41.0133     8.3961    38.1397 H            1 RES          0.0000
   1942 C           43.0377     8.1426    39.1243 C            1 RES          0.0000
   1943 C           44.0973     7.6433    37.9003 C            1 RES          0.0000
   1944 H           43.3806     7.6382    40.0517 H            1 RES          0.0000
   1945 H           43.1701     9.2408    39.2159 H            1 RES          0.0000
   1946 H           43.9546     6.5460    37.8134 H            1 RES          0.0000
   1947 H           43.7441     8.1488    36.9775 H            1 RES          0.0000
   1948 C           45.7758     7.8930    37.9563 C            1 RES          0.0000
   1949 C           46.8446     7.3940    36.7304 C            1 RES          0.0000
   1950 H           46.1196     7.3881    38.8830 H            1 RES          0.0000
   1951 H           45.9090     8.9910    38.0470 H            1 RES          0.0000
   1952 H           46.7032     6.2967    36.6435 H            1 RES          0.0000
   1953 H           46.4927     7.8997    35.8075 H            1 RES          0.0000
   1954 C           48.5300     7.6421    36.7818 C            1 RES          0.0000
   1955 C           49.6061     7.1431    35.5541 C            1 RES          0.0000
   1956 H           48.8747     7.1368    37.7076 H            1 RES          0.0000
   1957 H           48.6641     8.7399    36.8716 H            1 RES          0.0000
   1958 H           49.4657     6.0459    35.4673 H            1 RES          0.0000
   1959 H           49.2551     7.6491    34.6312 H            1 RES          0.0000
   1960 C           51.2971     7.3902    35.6020 C            1 RES          0.0000
   1961 C           52.3792     6.8913    34.3730 C            1 RES          0.0000
   1962 H           51.6421     6.8846    36.5274 H            1 RES          0.0000
   1963 H           51.4315     8.4878    35.6912 H            1 RES          0.0000
   1964 H           52.2394     5.7941    34.2862 H            1 RES          0.0000
   1965 H           52.0289     7.3974    33.4500 H            1 RES          0.0000
   1966 C           54.0746     7.1373    34.4178 C            1 RES          0.0000
   1967 C           55.1615     6.6386    33.1879 C            1 RES          0.0000
   1968 H           54.4201     6.6315    35.3427 H            1 RES          0.0000
   1969 H           54.2095     8.2348    34.5065 H            1 RES          0.0000
   1970 H           55.0224     5.5413    33.1010 H            1 RES          0.0000
   1971 H           54.8118     7.1448    32.2647 H            1 RES          0.0000
   1972 C           56.8603     6.8836    33.2300 C            1 RES          0.0000
   1973 C           57.9510     6.3851    31.9996 C            1 RES          0.0000
   1974 H           57.2064     6.3777    34.1548 H            1 RES          0.0000
   1975 H           56.9958     7.9812    33.3184 H            1 RES          0.0000
   1976 H           57.8124     5.2878    31.9126 H            1 RES          0.0000
   1977 H           57.6018     6.8914    31.0762 H            1 RES          0.0000
   1978 C           59.6523     6.6295    32.0397 C            1 RES          0.0000
   1979 C           60.7458     6.1312    30.8090 C            1 RES          0.0000
   1980 H           59.9988     6.1235    32.9643 H            1 RES          0.0000
   1981 H           59.7882     7.7271    32.1279 H            1 RES          0.0000
   1982 H           60.6076     5.0338    30.7218 H            1 RES          0.0000
   1983 H           60.3969     6.6374    29.8854 H            1 RES          0.0000
   1984 C            0.8916     6.3750    30.8476 C            1 RES          0.0000
   1985 C            1.9871     5.8768    29.6167 C            1 RES          0.0000
   1986 H            1.2385     5.8689    31.7721 H            1 RES          0.0000
   1987 H            1.0278     7.4726    30.9356 H            1 RES          0.0000
   1988 H            1.8492     4.7793    29.5294 H            1 RES          0.0000
   1989 H            1.6386     6.3830    28.6929 H            1 RES          0.0000
   1990 C            3.6915     6.1202    29.6542 C            1 RES          0.0000
   1991 C            4.7885     5.6221    28.4230 C            1 RES          0.0000
   1992 H            4.0386     5.6141    30.5786 H            1 RES          0.0000
   1993 H            3.8280     7.2178    29.7421 H            1 RES          0.0000
   1994 H            4.6508     4.5246    28.3357 H            1 RES          0.0000
   1995 H            4.4402     6.1283    27.4992 H            1 RES          0.0000
   1996 C            6.4939     5.8653    28.4598 C            1 RES          0.0000
   1997 C            7.5919     5.3672    27.2284 C            1 RES          0.0000
   1998 H            6.8412     5.3592    29.3841 H            1 RES          0.0000
   1999 H            6.6305     6.9629    28.5476 H            1 RES          0.0000
   2000 H            7.4544     4.2697    27.1410 H            1 RES          0.0000
   2001 H            7.2437     5.8734    26.3045 H            1 RES          0.0000
   2002 C            9.2979     5.6102    27.2647 C            1 RES          0.0000
   2003 C           10.3966     5.1121    26.0332 C            1 RES          0.0000
   2004 H            9.6454     5.1041    28.1889 H            1 RES          0.0000
   2005 H            9.4347     6.7078    27.3524 H            1 RES          0.0000
   2006 H           10.2593     4.0146    25.9458 H            1 RES          0.0000
   2007 H           10.0486     5.6184    25.1093 H            1 RES          0.0000
   2008 C           12.1032     5.3551    26.0692 C            1 RES          0.0000
   2009 C           13.2023     4.8570    24.8375 C            1 RES          0.0000
   2010 H           12.4507     4.8489    26.9933 H            1 RES          0.0000
   2011 H           12.2401     6.4526    26.1567 H            1 RES          0.0000
   2012 H           13.0651     3.7595    24.7502 H            1 RES          0.0000
   2013 H           12.8544     5.3632    23.9136 H            1 RES          0.0000
   2014 C           14.9091     5.0999    24.8733 C            1 RES          0.0000
   2015 C           16.0086     4.6018    23.6416 C            1 RES          0.0000
   2016 H           15.2568     4.5937    25.7974 H            1 RES          0.0000
   2017 H           15.0461     6.1974    24.9608 H            1 RES          0.0000
   2018 H           15.8714     3.5043    23.5542 H            1 RES          0.0000
   2019 H           15.6607     5.1080    22.7176 H            1 RES          0.0000
   2020 C           17.7156     4.8447    23.6772 C            1 RES          0.0000
   2021 C           18.8152     4.3466    22.4455 C            1 RES          0.0000
   2022 H           18.0633     4.3385    24.6013 H            1 RES          0.0000
   2023 H           17.8526     5.9422    23.7647 H            1 RES          0.0000
   2024 H           18.6781     3.2491    22.3581 H            1 RES          0.0000
   2025 H           18.4674     4.8528    21.5215 H            1 RES          0.0000
   2026 C           20.5224     4.5894    22.4810 C            1 RES          0.0000
   2027 C           21.6221     4.0913    21.2493 C            1 RES          0.0000
   2028 H           20.8701     4.0832    23.4051 H            1 RES          0.0000
   2029 H           20.6594     5.6869    22.5685 H            1 RES          0.0000
   2030 H           21.4850     2.9938    21.1618 H            1 RES          0.0000
   2031 H           21.2743     4.5975    20.3252 H            1 RES          0.0000
   2032 C           23.3293     4.3341    21.2847 C            1 RES          0.0000
   2033 C           24.4292     3.8361    20.0530 C            1 RES          0.0000
   2034 H           23.6771     3.8280    22.2088 H            1 RES          0.0000
   2035 H           23.4664     5.4317    21.3721 H            1 RES          0.0000
   2036 H           24.2921     2.7385    19.9656 H            1 RES          0.0000
   2037 H           24.0814     4.3422    19.1289 H            1 RES          0.0000
   2038 C           26.1364     4.0789    20.0884 C            1 RES          0.0000
   2039 C           27.2363     3.5808    18.8566 C            1 RES          0.0000
   2040 H           26.4842     3.5727    21.0124 H            1 RES          0.0000
   2041 H           26.2735     5.1764    20.1758 H            1 RES          0.0000
   2042 H           27.0992     2.4833    18.7693 H            1 RES          0.0000
   2043 H           26.8885     4.0869    17.9326 H            1 RES          0.0000
   2044 C           28.9436     3.8236    18.8920 C            1 RES          0.0000
   2045 C           30.0435     3.3255    17.6603 C            1 RES          0.0000
   2046 H           29.2913     3.3174    19.8161 H            1 RES          0.0000
   2047 H           29.0806     4.9211    18.9795 H            1 RES          0.0000
   2048 H           29.9064     2.2279    17.5730 H            1 RES          0.0000
   2049 H           29.6958     3.8316    16.7363 H            1 RES          0.0000
   2050 C           31.7507     3.5683    17.6957 C            1 RES          0.0000
   2051 C           32.8505     3.0702    16.4640 C            1 RES          0.0000
   2052 H           32.0985     3.0622    18.6198 H            1 RES          0.0000
   2053 H           31.8877     4.6658    17.7831 H            1 RES          0.0000
   2054 H           32.7135     1.9727    16.3766 H            1 RES          0.0000
   2055 H           32.5027     3.5764    15.5400 H            1 RES          0.0000
   2056 C           34.5577     3.3131    16.4995 C            1 RES          0.0000
   2057 C           35.6575     2.8150    15.2678 C            1 RES          0.0000
   2058 H           34.9055     2.8070    17.4235 H            1 RES          0.0000
   2059 H           34.6947     4.4106    16.5869 H            1 RES          0.0000
   2060 H           35.5205     1.7175    15.1804 H            1 RES          0.0000
   2061 H           35.3097     3.3211    14.3437 H            1 RES          0.0000
   2062 C           37.3647     3.0578    15.3032 C            1 RES          0.0000
   2063 C           38.4646     2.5597    14.0715 C            1 RES          0.0000
   2064 H           37.7124     2.5517    16.2273 H            1 RES          0.0000
   2065 H           37.5018     4.1554    15.3905 H            1 RES          0.0000
   2066 H           38.3276     1.4622    13.9841 H            1 RES          0.0000
   2067 H           38.1169     3.0658    13.1474 H            1 RES          0.0000
   2068 C           40.1719     2.8025    14.1069 C            1 RES          0.0000
   2069 C           41.2718     2.3044    12.8752 C            1 RES          0.0000
   2070 H           40.5197     2.2964    15.0310 H            1 RES          0.0000
   2071 H           40.3090     3.9001    14.1942 H            1 RES          0.0000
   2072 H           41.1348     1.2069    12.7878 H            1 RES          0.0000
   2073 H           40.9240     2.8105    11.9511 H            1 RES          0.0000
   2074 C           42.9790     2.5473    12.9106 C            1 RES          0.0000
   2075 C           44.0789     2.0491    11.6789 C            1 RES          0.0000
   2076 H           43.3269     2.0412    13.8347 H            1 RES          0.0000
   2077 H           43.1161     3.6448    12.9979 H            1 RES          0.0000
   2078 H           43.9419     0.9516    11.5916 H            1 RES          0.0000
   2079 H           43.7311     2.5552    10.7548 H            1 RES          0.0000
   2080 C           45.7861     2.2920    11.7143 C            1 RES          0.0000
   2081 C           46.8859     1.7939    10.4827 C            1 RES          0.0000
   2082 H           46.1339     1.7859    12.6384 H            1 RES          0.0000
   2083 H           45.9232     3.3895    11.8016 H            1 RES          0.0000
   2084 H           46.7489     0.6963    10.3953 H            1 RES          0.0000
   2085 H           46.5381     2.2999     9.5585 H            1 RES          0.0000
   2086 C           48.5930     2.0367    10.5181 C            1 RES          0.0000
   2087 C           49.6927     1.5386     9.2865 C            1 RES          0.0000
   2088 H           48.9409     1.5307    11.4422 H            1 RES          0.0000
   2089 H           48.7301     3.1343    10.6054 H            1 RES          0.0000
   2090 H           49.5557     0.4410     9.1992 H            1 RES          0.0000
   2091 H           49.3450     2.0446     8.3624 H            1 RES          0.0000
   2092 C           51.3997     1.7815     9.3221 C            1 RES          0.0000
   2093 C           52.4992     1.2833     8.0905 C            1 RES          0.0000
   2094 H           51.7476     1.2754    10.2461 H            1 RES          0.0000
   2095 H           51.5368     2.8790     9.4093 H            1 RES          0.0000
   2096 H           52.3623     0.1858     8.0031 H            1 RES          0.0000
   2097 H           52.1515     1.7894     7.1663 H            1 RES          0.0000
   2098 C           54.2060     1.5263     8.1262 C            1 RES          0.0000
   2099 C           55.3051     1.0281     6.8946 C            1 RES          0.0000
   2100 H           54.5539     1.0203     9.0502 H            1 RES          0.0000
   2101 H           54.3432     2.6238     8.2134 H            1 RES          0.0000
   2102 H           55.1683    61.4878     6.8072 H            1 RES          0.0000
   2103 H           54.9575     1.5341     5.9704 H            1 RES          0.0000
   2104 C           57.0116     1.2712     6.9305 C            1 RES          0.0000
   2105 C           58.1103     0.7730     5.6991 C            1 RES          0.0000
   2106 H           57.3597     0.7651     7.8545 H            1 RES          0.0000
   2107 H           57.1489     2.3687     7.0177 H            1 RES          0.0000
   2108 H           57.9736    61.2326     5.6116 H            1 RES          0.0000
   2109 H           57.7628     1.2790     4.7748 H            1 RES          0.0000
   2110 C           59.8164     1.0161     5.7353 C            1 RES          0.0000
   2111 C           60.9144     0.5179     4.5040 C            1 RES          0.0000
   2112 H           60.1646     0.5101     6.6593 H            1 RES          0.0000
   2113 H           59.9538     2.1137     5.8225 H            1 RES          0.0000
   2114 H           60.7778    60.9776     4.4164 H            1 RES          0.0000
   2115 H           60.5670     1.0239     3.5796 H            1 RES          0.0000
   2116 C            1.0625     0.7612     4.5407 C            1 RES          0.0000
   2117 C            2.1595     0.2630     3.3096 C            1 RES          0.0000
   2118 H            1.4109     0.2552     5.4646 H            1 RES          0.0000
   2119 H            1.2001     1.8588     4.6278 H            1 RES          0.0000
   2120 H            2.0231    60.7226     3.2219 H            1 RES          0.0000
   2121 H            1.8123     0.7689     2.3851 H            1 RES          0.0000
   2122 C            3.8639     0.5066     3.3470 C            1 RES          0.0000
   2123 C            4.9594     0.0083     2.1161 C            1 RES          0.0000
   2124 H            4.2125     0.0006     4.2708 H            1 RES          0.0000
   2125 H            4.0017     1.6041     3.4341 H            1 RES          0.0000
   2126 H            4.8232    60.4679     2.0283 H            1 RES          0.0000
   2127 H            4.6124     0.5141     1.1915 H            1 RES          0.0000
   2128 C            6.6624     0.2522     2.1546 C            1 RES          0.0000
   2129 C            7.7559    61.3110     0.9239 C            1 RES          0.0000
   2130 H            7.0113    61.3034     3.0783 H            1 RES          0.0000
   2131 H            6.8005     1.3496     2.2416 H            1 RES          0.0000
   2132 H            7.6201    60.2134     0.8359 H            1 RES          0.0000
   2133 H            7.4093     0.2596    61.5565 H            1 RES          0.0000
   2134 C            9.4572    61.5555     0.9640 C            1 RES          0.0000
   2135 C           10.5478    61.0569    61.2909 C            1 RES          0.0000
   2136 H            9.8064    61.0495     1.8874 H            1 RES          0.0000
   2137 H            9.5957     1.0956     1.0508 H            1 RES          0.0000
   2138 H           10.4125    59.9593    61.2027 H            1 RES          0.0000
   2139 H           10.2017     0.0054    60.3661 H            1 RES          0.0000
   2140 C           12.2466    61.3021    61.3330 C            1 RES          0.0000
   2141 C           13.3335    60.8033    60.1031 C            1 RES          0.0000
   2142 H           12.5964    60.7961     0.6989 H            1 RES          0.0000
   2143 H           12.3856     0.8421    61.4196 H            1 RES          0.0000
   2144 H           13.1986    59.7057    60.0146 H            1 RES          0.0000
   2145 H           12.9879    61.3089    59.1781 H            1 RES          0.0000
   2146 C           15.0289    61.0494    60.1478 C            1 RES          0.0000
   2147 C           16.1109    60.5504    58.9189 C            1 RES          0.0000
   2148 H           15.3792    60.5434    61.0709 H            1 RES          0.0000
   2149 H           15.1685     0.5893    60.2344 H            1 RES          0.0000
   2150 H           15.9766    59.4527    58.8299 H            1 RES          0.0000
   2151 H           15.7659    61.0558    57.9935 H            1 RES          0.0000
   2152 C           17.8019    60.7976    58.9667 C            1 RES          0.0000
   2153 C           18.8779    60.2985    57.7391 C            1 RES          0.0000
   2154 H           18.1529    60.2918    59.8897 H            1 RES          0.0000
   2155 H           17.9422     0.3375    59.0534 H            1 RES          0.0000
   2156 H           18.7439    59.2006    57.6495 H            1 RES          0.0000
   2157 H           18.5332    60.8036    56.8132 H            1 RES          0.0000
   2158 C           20.5633    60.5467    57.7904 C            1 RES          0.0000
   2159 C           21.6322    60.0476    56.5646 C            1 RES          0.0000
   2160 H           20.9153    60.0412    58.7135 H            1 RES          0.0000
   2161 H           20.7046     0.0868    57.8772 H            1 RES          0.0000
   2162 H           21.4990    58.9495    56.4741 H            1 RES          0.0000
   2163 H           21.2883    60.5523    55.6379 H            1 RES          0.0000
   2164 C           23.3106    60.2974    56.6206 C            1 RES          0.0000
   2165 C           24.3702    59.7980    55.3967 C            1 RES          0.0000
   2166 H           23.6639    59.7921    57.5435 H            1 RES          0.0000
   2167 H           23.4532    61.3947    56.7073 H            1 RES          0.0000
   2168 H           24.2379    58.6998    55.3053 H            1 RES          0.0000
   2169 H           24.0272    60.3022    54.4692 H            1 RES          0.0000
   2170 C           26.0401    60.0498    55.4587 C            1 RES          0.0000
   2171 C           27.0880    59.5499    54.2369 C            1 RES          0.0000
   2172 H           26.3946    59.5448    56.3813 H            1 RES          0.0000
   2173 H           26.1840    61.1471    55.5453 H            1 RES          0.0000
   2174 H           26.9565    58.4516    54.1446 H            1 RES          0.0000
   2175 H           26.7459    60.0537    53.3087 H            1 RES          0.0000
   2176 C           28.7478    59.8042    54.3062 C            1 RES          0.0000
   2177 C           29.7816    59.3036    53.0866 C            1 RES          0.0000
   2178 H           29.1035    59.2996    55.2288 H            1 RES          0.0000
   2179 H           28.8929    60.9014    54.3929 H            1 RES          0.0000
   2180 H           29.6510    58.2053    52.9937 H            1 RES          0.0000
   2181 H           29.4404    59.8069    52.1579 H            1 RES          0.0000
   2182 C           31.4299    59.5609    53.1648 C            1 RES          0.0000
   2183 C           32.4472    59.0590    51.9470 C            1 RES          0.0000
   2184 H           31.7866    59.0565    54.0867 H            1 RES          0.0000
   2185 H           31.5761    60.6578    53.2511 H            1 RES          0.0000
   2186 H           32.3169    57.9609    51.8540 H            1 RES          0.0000
   2187 H           32.1064    59.5620    51.0183 H            1 RES          0.0000
   2188 C           34.0826    59.3203    52.0360 C            1 RES          0.0000
   2189 C           35.0817    58.8168    50.8201 C            1 RES          0.0000
   2190 H           34.4401    58.8161    52.9573 H            1 RES          0.0000
   2191 H           34.2297    60.4168    52.1219 H            1 RES          0.0000
   2192 H           34.9531    57.7190    50.7265 H            1 RES          0.0000
   2193 H           34.7426    59.3193    49.8910 H            1 RES          0.0000
   2194 C           36.7024    59.0827    50.9215 C            1 RES          0.0000
   2195 C           37.6810    58.5778    49.7084 C            1 RES          0.0000
   2196 H           37.0615    58.5786    51.8419 H            1 RES          0.0000
   2197 H           36.8509    60.1787    51.0066 H            1 RES          0.0000
   2198 H           37.5537    57.4801    49.6140 H            1 RES          0.0000
   2199 H           37.3429    59.0798    48.7787 H            1 RES          0.0000
   2200 C           39.2847    58.8488    49.8231 C            1 RES          0.0000
   2201 C           40.2422    58.3437    48.6144 C            1 RES          0.0000
   2202 H           39.6446    58.3455    50.7438 H            1 RES          0.0000
   2203 H           39.4335    59.9449    49.9087 H            1 RES          0.0000
   2204 H           40.1153    57.2456    48.5186 H            1 RES          0.0000
   2205 H           39.9040    58.8446    47.6836 H            1 RES          0.0000
   2206 C           41.8274    58.6207    48.7440 C            1 RES          0.0000
   2207 C           42.7679    58.1176    47.5427 C            1 RES          0.0000
   2208 H           42.1856    58.1185    49.6666 H            1 RES          0.0000
   2209 H           41.9738    59.7175    48.8317 H            1 RES          0.0000
   2210 H           42.6426    57.0189    47.4450 H            1 RES          0.0000
   2211 H           42.4304    58.6173    46.6102 H            1 RES          0.0000
   2212 C           44.3339    58.4013    47.6885 C            1 RES          0.0000
   2213 C           45.2595    57.9013    46.4962 C            1 RES          0.0000
   2214 H           44.6917    57.9005    48.6128 H            1 RES          0.0000
   2215 H           44.4789    59.4990    47.7782 H            1 RES          0.0000
   2216 H           45.1397    56.8016    46.3949 H            1 RES          0.0000
   2217 H           44.9267    58.3993    45.5601 H            1 RES          0.0000
   2218 C           46.8033    58.1948    46.6650 C            1 RES          0.0000
   2219 C           47.7153    57.6987    45.4846 C            1 RES          0.0000
   2220 H           47.1586    57.6952    47.5916 H            1 RES          0.0000
   2221 H           46.9454    59.2934    46.7570 H            1 RES          0.0000
   2222 H           47.6026    56.5982    45.3798 H            1 RES          0.0000
   2223 H           47.3900    58.1946    44.5443 H            1 RES          0.0000
   2224 C           49.2336    58.0057    45.6872 C            1 RES          0.0000
   2225 C           50.1385    57.5143    44.5234 C            1 RES          0.0000
   2226 H           49.5793    57.5075    46.6184 H            1 RES          0.0000
   2227 H           49.3682    59.1053    45.7831 H            1 RES          0.0000
   2228 H           50.0331    56.4132    44.4159 H            1 RES          0.0000
   2229 H           49.8242    58.0082    43.5778 H            1 RES          0.0000
   2230 C           51.6302    57.8350    44.7676 C            1 RES          0.0000
   2231 C           52.5304    57.3487    43.6273 C            1 RES          0.0000
   2232 H           53.5926    57.5981    43.8476 H            1 RES          0.0000
   2233 H           51.9653    57.3381    45.7030 H            1 RES          0.0000
   2234 H           51.7629    58.9343    44.8650 H            1 RES          0.0000
   2235 H           52.4477    56.2480    43.5081 H            1 RES          0.0000
   2236 H           52.2498    57.8359    42.6695 H            1 RES          0.0000
   2237 H           49.9610    27.7384    52.7144 H            1 RES          0.0000
   2238 C           49.2352    27.1221    53.2911 C            1 RES          0.0000
   2239 C           49.6893    25.6591    53.3115 C            1 RES          0.0000
   2240 H           48.2384    27.2179    52.8108 H            1 RES          0.0000
   2241 H           49.1767    27.5263    54.3234 H            1 RES          0.0000
   2242 H           49.7556    25.3053    52.2598 H            1 RES          0.0000
   2243 H           50.6965    25.6205    53.7785 H            1 RES          0.0000
   2244 C           48.7228    24.7492    54.1025 C            1 RES          0.0000
   2245 C           49.1940    23.2685    54.1231 C            1 RES          0.0000
   2246 H           47.7181    24.8102    53.6296 H            1 RES          0.0000
   2247 H           48.6623    25.1299    55.1449 H            1 RES          0.0000
   2248 H           49.2601    22.9170    53.0703 H            1 RES          0.0000
   2249 H           50.2034    23.2408    54.5870 H            1 RES          0.0000
   2250 C           48.2477    22.3117    54.9164 C            1 RES          0.0000
   2251 C           48.7287    20.8152    54.9373 C            1 RES          0.0000
   2252 H           47.2414    22.3607    54.4461 H            1 RES          0.0000
   2253 H           48.1856    22.6852    55.9612 H            1 RES          0.0000
   2254 H           48.7955    20.4718    53.8823 H            1 RES          0.0000
   2255 H           49.7393    20.7978    55.3986 H            1 RES          0.0000
   2256 C           47.7964    19.8162    55.7317 C            1 RES          0.0000
   2257 C           48.2800    18.3017    55.7555 C            1 RES          0.0000
   2258 H           46.7898    19.8566    55.2628 H            1 RES          0.0000
   2259 H           47.7336    20.1822    56.7787 H            1 RES          0.0000
   2260 H           48.3465    17.9619    54.7000 H            1 RES          0.0000
   2261 H           49.2901    18.2878    56.2167 H            1 RES          0.0000
   2262 C           47.3548    17.2701    56.5518 C            1 RES          0.0000
   2263 C           47.8380    15.7382    56.5792 C            1 RES          0.0000
   2264 H           46.3486    17.3043    56.0833 H            1 RES          0.0000
   2265 H           47.2920    17.6296    57.6002 H            1 RES          0.0000
   2266 H           47.9036    15.4009    55.5237 H            1 RES          0.0000
   2267 H           48.8469    15.7261    57.0413 H            1 RES          0.0000
   2268 C           46.9158    14.6810    57.3782 C            1 RES          0.0000
   2269 C           47.3961    13.1314    57.4107 C            1 RES          0.0000
   2270 H           45.9105    14.7134    56.9091 H            1 RES          0.0000
   2271 H           46.8537    15.0380    58.4269 H            1 RES          0.0000
   2272 H           47.4613    12.7973    56.3548 H            1 RES          0.0000
   2273 H           48.4043    13.1219    57.8730 H            1 RES          0.0000
   2274 C           46.4762    12.0500    58.2127 C            1 RES          0.0000
   2275 C           46.9492    10.4820    58.2536 C            1 RES          0.0000
   2276 H           45.4720    12.0815    57.7427 H            1 RES          0.0000
   2277 H           46.4151    12.4059    59.2614 H            1 RES          0.0000
   2278 H           47.0138    10.1479    57.1978 H            1 RES          0.0000
   2279 H           47.9569    10.4722    58.7168 H            1 RES          0.0000
   2280 C           46.0314     9.3787    59.0586 C            1 RES          0.0000
   2281 C           46.4959     7.7938    59.1084 C            1 RES          0.0000
   2282 H           45.0269     9.4088    58.5885 H            1 RES          0.0000
   2283 H           45.9702     9.7331    60.1079 H            1 RES          0.0000
   2284 H           46.5604     7.4580    58.0527 H            1 RES          0.0000
   2285 H           47.5036     7.7825    59.5725 H            1 RES          0.0000
   2286 C           45.5805     6.6710    59.9160 C            1 RES          0.0000
   2287 C           46.0372     5.0717    59.9739 C            1 RES          0.0000
   2288 H           44.5755     6.6996    59.4461 H            1 RES          0.0000
   2289 H           45.5189     7.0240    60.9662 H            1 RES          0.0000
   2290 H           46.1016     4.7349    58.9182 H            1 RES          0.0000
   2291 H           47.0450     5.0595    60.4386 H            1 RES          0.0000
   2292 C           45.1239     3.9319    60.7838 C            1 RES          0.0000
   2293 C           45.5736     2.3193    60.8490 C            1 RES          0.0000
   2294 H           44.1186     3.9600    60.3138 H            1 RES          0.0000
   2295 H           45.0623     4.2847     0.2772 H            1 RES          0.0000
   2296 H           45.6377     1.9814    59.7935 H            1 RES          0.0000
   2297 H           46.5814     2.3062    61.3144 H            1 RES          0.0000
   2298 C           44.6614     1.1650     0.1042 C            1 RES          0.0000
   2299 C           45.1057    61.0980     0.1753 C            1 RES          0.0000
   2300 H           43.6561     1.1920    61.1914 H            1 RES          0.0000
   2301 H           44.5999     1.5168     1.1552 H            1 RES          0.0000
   2302 H           45.1691    60.7590    60.6775 H            1 RES          0.0000
   2303 H           46.1129    61.0839     0.6415 H            1 RES          0.0000
   2304 C           44.1941    59.9311     0.9900 C            1 RES          0.0000
   2305 C           44.6341    58.2968     1.0660 C            1 RES          0.0000
   2306 H           43.1890    59.9568     0.5199 H            1 RES          0.0000
   2307 H           44.1329    60.2817     2.0413 H            1 RES          0.0000
   2308 H           44.6969    57.9569     0.0113 H            1 RES          0.0000
   2309 H           45.6409    58.2818     1.5329 H            1 RES          0.0000
   2310 C           43.7231    57.1195     1.8825 C            1 RES          0.0000
   2311 C           44.1597    55.4772     1.9623 C            1 RES          0.0000
   2312 H           42.7180    57.1440     1.4124 H            1 RES          0.0000
   2313 H           43.6620    57.4690     2.9341 H            1 RES          0.0000
   2314 H           44.2219    55.1363     0.9081 H            1 RES          0.0000
   2315 H           45.1660    55.4613     2.4299 H            1 RES          0.0000
   2316 C           43.2488    54.2916     2.7805 C            1 RES          0.0000
   2317 C           43.6832    52.6428     2.8631 C            1 RES          0.0000
   2318 H           42.2440    54.3149     2.3104 H            1 RES          0.0000
   2319 H           43.1881    54.6399     3.8323 H            1 RES          0.0000
   2320 H           43.7448    52.3012     1.8093 H            1 RES          0.0000
   2321 H           44.6890    52.6262     3.3313 H            1 RES          0.0000
   2322 C           42.7723    51.4507     3.6828 C            1 RES          0.0000
   2323 C           43.2046    49.7966     3.7678 C            1 RES          0.0000
   2324 H           41.7676    51.4733     3.2126 H            1 RES          0.0000
   2325 H           42.7118    51.7983     4.7346 H            1 RES          0.0000
   2326 H           43.2658    49.4545     2.7142 H            1 RES          0.0000
   2327 H           44.2101    49.7795     4.2363 H            1 RES          0.0000
   2328 C           42.2939    48.5990     4.5884 C            1 RES          0.0000
   2329 C           42.7245    46.9408     4.6754 C            1 RES          0.0000
   2330 H           41.2893    48.6210     4.1182 H            1 RES          0.0000
   2331 H           42.2336    48.9460     5.6404 H            1 RES          0.0000
   2332 H           42.7854    46.5982     3.6220 H            1 RES          0.0000
   2333 H           43.7298    46.9232     5.1442 H            1 RES          0.0000
   2334 C           41.8141    45.7390     5.4967 C            1 RES          0.0000
   2335 C           42.2432    44.0776     5.5853 C            1 RES          0.0000
   2336 H           40.8094    45.7603     5.0267 H            1 RES          0.0000
   2337 H           41.7538    46.0854     6.5490 H            1 RES          0.0000
   2338 H           42.3040    43.7345     4.5320 H            1 RES          0.0000
   2339 H           43.2484    44.0595     6.0544 H            1 RES          0.0000
   2340 C           41.3332    42.8726     6.4071 C            1 RES          0.0000
   2341 C           41.7610    41.2090     6.4969 C            1 RES          0.0000
   2342 H           40.3284    42.8935     5.9372 H            1 RES          0.0000
   2343 H           41.2728    43.2185     7.4596 H            1 RES          0.0000
   2344 H           41.8218    40.8654     5.4437 H            1 RES          0.0000
   2345 H           42.7662    41.1904     6.9661 H            1 RES          0.0000
   2346 C           40.8513    40.0016     7.3191 C            1 RES          0.0000
   2347 C           41.2783    38.3363     7.4097 C            1 RES          0.0000
   2348 H           39.8464    40.0221     6.8492 H            1 RES          0.0000
   2349 H           40.7909    40.3471     8.3717 H            1 RES          0.0000
   2350 H           41.3390    37.9924     6.3566 H            1 RES          0.0000
   2351 H           42.2835    38.3175     7.8790 H            1 RES          0.0000
   2352 C           40.3688    37.1271     8.2321 C            1 RES          0.0000
   2353 C           40.7952    35.4606     8.3234 C            1 RES          0.0000
   2354 H           39.3639    37.1474     7.7623 H            1 RES          0.0000
   2355 H           40.3084    37.4725     9.2848 H            1 RES          0.0000
   2356 H           40.8558    35.1165     7.2703 H            1 RES          0.0000
   2357 H           41.8004    35.4416     8.7928 H            1 RES          0.0000
   2358 C           39.8858    34.2503     9.1460 C            1 RES          0.0000
   2359 C           40.3119    32.5829     9.2377 C            1 RES          0.0000
   2360 H           38.8808    34.2703     8.6763 H            1 RES          0.0000
   2361 H           39.8254    34.5954    10.1988 H            1 RES          0.0000
   2362 H           40.3723    32.2386     8.1847 H            1 RES          0.0000
   2363 H           41.3170    32.5637     9.7072 H            1 RES          0.0000
   2364 C           39.4025    31.3717    10.0605 C            1 RES          0.0000
   2365 C           39.8283    29.7037    10.1524 C            1 RES          0.0000
   2366 H           38.3975    31.3916     9.5908 H            1 RES          0.0000
   2367 H           39.3421    31.7167    11.1133 H            1 RES          0.0000
   2368 H           39.8887    29.3593     9.0995 H            1 RES          0.0000
   2369 H           40.8333    29.6844    10.6220 H            1 RES          0.0000
   2370 C           38.9189    28.4920    10.9754 C            1 RES          0.0000
   2371 C           39.3446    26.8236    11.0675 C            1 RES          0.0000
   2372 H           37.9139    28.5117    10.5057 H            1 RES          0.0000
   2373 H           38.8586    28.8368    12.0282 H            1 RES          0.0000
   2374 H           39.4050    26.4791    10.0145 H            1 RES          0.0000
   2375 H           40.3496    26.8042    11.5371 H            1 RES          0.0000
   2376 C           38.4352    25.6114    11.8905 C            1 RES          0.0000
   2377 C           38.8608    23.9428    11.9827 C            1 RES          0.0000
   2378 H           37.4302    25.6311    11.4208 H            1 RES          0.0000
   2379 H           38.3749    25.9562    12.9433 H            1 RES          0.0000
   2380 H           38.9212    23.5983    10.9298 H            1 RES          0.0000
   2381 H           39.8658    23.9234    12.4523 H            1 RES          0.0000
   2382 C           37.9515    22.7304    12.8058 C            1 RES          0.0000
   2383 C           38.3770    21.0616    12.8981 C            1 RES          0.0000
   2384 H           36.9465    22.7501    12.3361 H            1 RES          0.0000
   2385 H           37.8911    23.0751    13.8586 H            1 RES          0.0000
   2386 H           38.4373    20.7171    11.8452 H            1 RES          0.0000
   2387 H           39.3820    21.0421    13.3677 H            1 RES          0.0000
   2388 C           37.4677    19.8491    13.7212 C            1 RES          0.0000
   2389 C           37.8931    18.1802    13.8135 C            1 RES          0.0000
   2390 H           36.4626    19.8687    13.2515 H            1 RES          0.0000
   2391 H           37.4073    20.1938    14.7741 H            1 RES          0.0000
   2392 H           37.9534    17.8356    12.7606 H            1 RES          0.0000
   2393 H           38.8981    18.1607    14.2831 H            1 RES          0.0000
   2394 C           36.9838    16.9676    14.6367 C            1 RES          0.0000
   2395 C           37.4092    15.2986    14.7290 C            1 RES          0.0000
   2396 H           35.9788    16.9872    14.1670 H            1 RES          0.0000
   2397 H           36.9235    17.3122    15.6895 H            1 RES          0.0000
   2398 H           37.4695    14.9540    13.6761 H            1 RES          0.0000
   2399 H           38.4143    15.2791    15.1986 H            1 RES          0.0000
   2400 C           36.4999    14.0860    15.5522 C            1 RES          0.0000
   2401 C           36.9253    12.4170    15.6445 C            1 RES          0.0000
   2402 H           35.4949    14.1055    15.0825 H            1 RES          0.0000
   2403 H           36.4396    14.4306    16.6051 H            1 RES          0.0000
   2404 H           36.9856    12.0724    14.5916 H            1 RES          0.0000
   2405 H           37.9304    12.3974    16.1141 H            1 RES          0.0000
   2406 C           36.0160    11.2043    16.4677 C            1 RES          0.0000
   2407 C           36.4414     9.5353    16.5600 C            1 RES          0.0000
   2408 H           35.0110    11.2239    15.9981 H            1 RES          0.0000
   2409 H           35.9557    11.5489    17.5206 H            1 RES          0.0000
   2410 H           36.5017     9.1907    15.5071 H            1 RES          0.0000
   2411 H           37.4464     9.5156    17.0296 H            1 RES          0.0000
   2412 C           35.5321     8.3226    17.3832 C            1 RES          0.0000
   2413 C           35.9575     6.6537    17.4755 C            1 RES          0.0000
   2414 H           34.5270     8.3421    16.9136 H            1 RES          0.0000
   2415 H           35.4719     8.6673    18.4361 H            1 RES          0.0000
   2416 H           36.0178     6.3090    16.4227 H            1 RES          0.0000
   2417 H           36.9626     6.6341    17.9451 H            1 RES          0.0000
   2418 C           35.0482     5.4411    18.2987 C            1 RES          0.0000
   2419 C           35.4736     3.7722    18.3911 C            1 RES          0.0000
   2420 H           34.0432     5.4607    17.8291 H            1 RES          0.0000
   2421 H           34.9880     5.7858    19.3516 H            1 RES          0.0000
   2422 H           35.5339     3.4275    17.3382 H            1 RES          0.0000
   2423 H           36.4787     3.7526    18.8606 H            1 RES          0.0000
   2424 C           34.5644     2.5595    19.2142 C            1 RES          0.0000
   2425 C           34.9897     0.8905    19.3066 C            1 RES          0.0000
   2426 H           33.5593     2.5792    18.7446 H            1 RES          0.0000
   2427 H           34.5041     2.9041    20.2672 H            1 RES          0.0000
   2428 H           35.0499     0.5459    18.2537 H            1 RES          0.0000
   2429 H           35.9947     0.8709    19.7761 H            1 RES          0.0000
   2430 C           34.0804    61.2351    20.1297 C            1 RES          0.0000
   2431 C           34.5057    59.5661    20.2221 C            1 RES          0.0000
   2432 H           33.0753    61.2547    19.6602 H            1 RES          0.0000
   2433 H           34.0202     0.0225    21.1826 H            1 RES          0.0000
   2434 H           34.5660    59.2215    19.1692 H            1 RES          0.0000
   2435 H           35.5108    59.5465    20.6916 H            1 RES          0.0000
   2436 C           33.5965    58.3534    21.0452 C            1 RES          0.0000
   2437 C           34.0218    56.6845    21.1376 C            1 RES          0.0000
   2438 H           32.5914    58.3730    20.5757 H            1 RES          0.0000
   2439 H           33.5362    58.6980    22.0982 H            1 RES          0.0000
   2440 H           34.0820    56.3398    20.0847 H            1 RES          0.0000
   2441 H           35.0269    56.6648    21.6071 H            1 RES          0.0000
   2442 C           33.1125    55.4719    21.9607 C            1 RES          0.0000
   2443 C           33.5379    53.8030    22.0530 C            1 RES          0.0000
   2444 H           32.1075    55.4914    21.4912 H            1 RES          0.0000
   2445 H           33.0523    55.8165    23.0137 H            1 RES          0.0000
   2446 H           33.5981    53.4583    21.0001 H            1 RES          0.0000
   2447 H           34.5430    53.7833    22.5226 H            1 RES          0.0000
   2448 C           32.6286    52.5904    22.8762 C            1 RES          0.0000
   2449 C           33.0540    50.9216    22.9684 C            1 RES          0.0000
   2450 H           31.6235    52.6100    22.4067 H            1 RES          0.0000
   2451 H           32.5684    52.9350    23.9291 H            1 RES          0.0000
   2452 H           33.1142    50.5769    21.9155 H            1 RES          0.0000
   2453 H           34.0591    50.9019    23.4379 H            1 RES          0.0000
   2454 C           32.1448    49.7093    23.7915 C            1 RES          0.0000
   2455 C           32.5702    48.0406    23.8837 C            1 RES          0.0000
   2456 H           31.1397    49.7288    23.3221 H            1 RES          0.0000
   2457 H           32.0845    50.0538    24.8445 H            1 RES          0.0000
   2458 H           32.6304    47.6959    22.8308 H            1 RES          0.0000
   2459 H           33.5753    48.0209    24.3532 H            1 RES          0.0000
   2460 C           31.6609    46.8285    24.7068 C            1 RES          0.0000
   2461 C           32.0865    45.1601    24.7988 C            1 RES          0.0000
   2462 H           30.6558    46.8480    24.2373 H            1 RES          0.0000
   2463 H           31.6007    47.1730    25.7597 H            1 RES          0.0000
   2464 H           32.1467    44.8153    23.7459 H            1 RES          0.0000
   2465 H           33.0916    45.1403    25.2683 H            1 RES          0.0000
   2466 C           31.1772    43.9484    25.6218 C            1 RES          0.0000
   2467 C           31.6030    42.2804    25.7136 C            1 RES          0.0000
   2468 H           30.1721    43.9678    25.1524 H            1 RES          0.0000
   2469 H           31.1170    44.2927    26.6748 H            1 RES          0.0000
   2470 H           31.6632    41.9354    24.6608 H            1 RES          0.0000
   2471 H           32.6080    42.2604    26.1832 H            1 RES          0.0000
   2472 C           30.6937    41.0692    26.5366 C            1 RES          0.0000
   2473 C           31.1197    39.4018    26.6281 C            1 RES          0.0000
   2474 H           29.6885    41.0885    26.0672 H            1 RES          0.0000
   2475 H           30.6334    41.4135    27.5896 H            1 RES          0.0000
   2476 H           31.1799    39.0567    25.5753 H            1 RES          0.0000
   2477 H           32.1247    39.3817    27.0977 H            1 RES          0.0000
   2478 C           30.2103    38.1915    27.4509 C            1 RES          0.0000
   2479 C           30.6367    36.5250    27.5420 C            1 RES          0.0000
   2480 H           29.2051    38.2106    26.9816 H            1 RES          0.0000
   2481 H           30.1500    38.5356    28.5040 H            1 RES          0.0000
   2482 H           30.6969    36.1797    26.4893 H            1 RES          0.0000
   2483 H           31.6417    36.5047    28.0116 H            1 RES          0.0000
   2484 C           29.7273    35.3158    28.3646 C            1 RES          0.0000
   2485 C           30.1542    33.6506    28.4551 C            1 RES          0.0000
   2486 H           28.7220    35.3347    27.8954 H            1 RES          0.0000
   2487 H           29.6668    35.6597    29.4177 H            1 RES          0.0000
   2488 H           30.2144    33.3050    27.4025 H            1 RES          0.0000
   2489 H           31.1592    33.6300    28.9248 H            1 RES          0.0000
   2490 C           29.2446    32.4432    29.2774 C            1 RES          0.0000
   2491 C           29.6724    30.7796    29.3670 C            1 RES          0.0000
   2492 H           28.2393    32.4618    28.8083 H            1 RES          0.0000
   2493 H           29.1841    32.7868    30.3306 H            1 RES          0.0000
   2494 H           29.7326    30.4336    28.3146 H            1 RES          0.0000
   2495 H           30.6773    30.7586    29.8368 H            1 RES          0.0000
   2496 C           28.7625    29.5745    30.1890 C            1 RES          0.0000
   2497 C           29.1915    27.9132    30.2774 C            1 RES          0.0000
   2498 H           27.7572    29.5927    29.7201 H            1 RES          0.0000
   2499 H           28.7019    29.9177    31.2423 H            1 RES          0.0000
   2500 H           29.2516    27.5668    29.2252 H            1 RES          0.0000
   2501 H           30.1963    27.8918    30.7473 H            1 RES          0.0000
   2502 C           28.2813    26.7114    31.0989 C            1 RES          0.0000
   2503 C           28.7118    25.0532    31.1857 C            1 RES          0.0000
   2504 H           27.2759    26.7290    30.6302 H            1 RES          0.0000
   2505 H           28.2205    27.0540    32.1523 H            1 RES          0.0000
   2506 H           28.7718    24.7062    30.1337 H            1 RES          0.0000
   2507 H           29.7164    25.0312    31.6558 H            1 RES          0.0000
   2508 C           27.8011    23.8557    32.0065 C            1 RES          0.0000
   2509 C           28.2334    22.2016    32.0914 C            1 RES          0.0000
   2510 H           26.7956    23.8728    31.5382 H            1 RES          0.0000
   2511 H           27.7401    24.1977    33.0601 H            1 RES          0.0000
   2512 H           28.2937    21.8539    31.0395 H            1 RES          0.0000
   2513 H           29.2382    22.1789    32.5614 H            1 RES          0.0000
   2514 C           27.3226    21.0095    32.9111 C            1 RES          0.0000
   2515 C           27.7569    19.3607    32.9936 C            1 RES          0.0000
   2516 H           26.3167    21.0262    32.4432 H            1 RES          0.0000
   2517 H           27.2612    21.3511    33.9650 H            1 RES          0.0000
   2518 H           27.8174    19.0124    31.9418 H            1 RES          0.0000
   2519 H           28.7618    19.3374    33.4636 H            1 RES          0.0000
   2520 C           26.8461    18.1751    33.8119 C            1 RES          0.0000
   2521 C           27.2827    16.5328    33.8916 C            1 RES          0.0000
   2522 H           25.8397    18.1911    33.3446 H            1 RES          0.0000
   2523 H           26.7840    18.5161    34.8662 H            1 RES          0.0000
   2524 H           27.3435    16.1834    32.8400 H            1 RES          0.0000
   2525 H           28.2878    16.5083    34.3616 H            1 RES          0.0000
   2526 C           26.3717    15.3556    34.7083 C            1 RES          0.0000
   2527 C           26.8116    13.7213    34.7841 C            1 RES          0.0000
   2528 H           25.3648    15.3706    34.2416 H            1 RES          0.0000
   2529 H           26.3090    15.6955    35.7630 H            1 RES          0.0000
   2530 H           26.8727    13.3707    33.7328 H            1 RES          0.0000
   2531 H           27.8168    13.6955    35.2541 H            1 RES          0.0000
   2532 C           25.9001    12.5545    35.5989 C            1 RES          0.0000
   2533 C           26.3443    10.9302    35.6699 C            1 RES          0.0000
   2534 H           24.8928    12.5686    35.1329 H            1 RES          0.0000
   2535 H           25.8368    12.8934    36.6540 H            1 RES          0.0000
   2536 H           26.4057    10.5785    34.6189 H            1 RES          0.0000
   2537 H           27.3496    10.9032    36.1398 H            1 RES          0.0000
   2538 C           25.4321     9.7760    36.4824 C            1 RES          0.0000
   2539 C           25.8818     8.1634    36.5475 C            1 RES          0.0000
   2540 H           24.4243     9.7892    36.0172 H            1 RES          0.0000
   2541 H           25.3682    10.1139    37.5379 H            1 RES          0.0000
   2542 H           25.9433     7.8107    35.4968 H            1 RES          0.0000
   2543 H           26.8871     8.1352    37.0173 H            1 RES          0.0000
   2544 C           24.9685     7.0237    37.3575 C            1 RES          0.0000
   2545 C           25.4251     5.4244    37.4152 C            1 RES          0.0000
   2546 H           23.9606     7.0359    36.8928 H            1 RES          0.0000
   2547 H           24.9043     7.3605    38.4132 H            1 RES          0.0000
   2548 H           25.4866     5.0714    36.3650 H            1 RES          0.0000
   2549 H           26.4302     5.3957    37.8850 H            1 RES          0.0000
   2550 C           24.5098     4.3016    38.2229 C            1 RES          0.0000
   2551 C           24.9743     2.7168    38.2726 C            1 RES          0.0000
   2552 H           23.5020     4.3130    37.7589 H            1 RES          0.0000
   2553 H           24.4454     4.6374    39.2786 H            1 RES          0.0000
   2554 H           25.0354     2.3623    37.2232 H            1 RES          0.0000
   2555 H           25.9788     2.6865    38.7426 H            1 RES          0.0000
   2556 C           24.0565     1.6135    39.0777 C            1 RES          0.0000
   2557 C           24.5294     0.0455    39.1185 C            1 RES          0.0000
   2558 H           23.0488     1.6233    38.6145 H            1 RES          0.0000
   2559 H           23.9920     1.9476    40.1335 H            1 RES          0.0000
   2560 H           24.5905    61.2469    38.0698 H            1 RES          0.0000
   2561 H           25.5338     0.0139    39.5884 H            1 RES          0.0000
   2562 C           23.6096    60.5214    39.9205 C            1 RES          0.0000
   2563 C           24.0899    58.9718    39.9530 C            1 RES          0.0000
   2564 H           22.6013    60.5309    39.4583 H            1 RES          0.0000
   2565 H           23.5445    60.8554    40.9764 H            1 RES          0.0000
   2566 H           24.1519    58.6148    38.9043 H            1 RES          0.0000
   2567 H           25.0952    58.9394    40.4220 H            1 RES          0.0000
   2568 C           23.1677    57.9147    40.7520 C            1 RES          0.0000
   2569 C           23.6508    56.3827    40.7794 C            1 RES          0.0000
   2570 H           22.1587    57.9268    40.2900 H            1 RES          0.0000
   2571 H           23.1022    58.2520    41.8075 H            1 RES          0.0000
   2572 H           23.7136    56.0233    39.7309 H            1 RES          0.0000
   2573 H           24.6571    56.3485    41.2477 H            1 RES          0.0000
   2574 C           22.7256    55.3513    41.5757 C            1 RES          0.0000
   2575 C           23.2091    53.8367    41.5995 C            1 RES          0.0000
   2576 H           21.7155    55.3652    41.1146 H            1 RES          0.0000
   2577 H           22.6592    55.6910    42.6313 H            1 RES          0.0000
   2578 H           23.2719    53.4707    40.5525 H            1 RES          0.0000
   2579 H           24.2158    53.7963    42.0684 H            1 RES          0.0000
   2580 C           22.2768    52.8379    42.3939 C            1 RES          0.0000
   2581 C           22.7577    51.3414    42.4149 C            1 RES          0.0000
   2582 H           21.2662    52.8553    41.9327 H            1 RES          0.0000
   2583 H           22.2101    53.1813    43.4489 H            1 RES          0.0000
   2584 H           22.8197    50.9678    41.3702 H            1 RES          0.0000
   2585 H           23.7640    51.2923    42.8852 H            1 RES          0.0000
   2586 C           21.8113    50.3847    43.2083 C            1 RES          0.0000
   2587 C           22.2823    48.9040    43.2289 C            1 RES          0.0000
   2588 H           20.8019    50.4125    42.7444 H            1 RES          0.0000
   2589 H           21.7452    50.7363    44.2611 H            1 RES          0.0000
   2590 H           22.3427    48.5232    42.1866 H            1 RES          0.0000
   2591 H           23.2870    48.8428    43.7019 H            1 RES          0.0000
   2592 C           21.3157    47.9942    44.0200 C            1 RES          0.0000
   2593 C           21.7696    46.5311    44.0405 C            1 RES          0.0000
   2594 H           21.0437    45.9151    44.6172 H            1 RES          0.0000
   2595 H           20.3085    48.0329    43.5530 H            1 RES          0.0000
   2596 H           21.2494    48.3481    45.0717 H            1 RES          0.0000
   2597 H           21.8280    46.1269    43.0082 H            1 RES          0.0000
   2598 H           22.7664    46.4352    44.5209 H            1 RES          0.0000
   2599 H           13.5259    31.6944     8.9481 H            1 RES          0.0000
   2600 C           14.5732    31.4858     8.6346 C            1 RES          0.0000
   2601 C           15.1559    32.7061     7.9179 C            1 RES          0.0000
   2602 H           14.5679    30.6030     7.9613 H            1 RES          0.0000
   2603 H           15.1681    31.2438     9.5403 H            1 RES          0.0000
   2604 H           14.5177    32.9232     7.0348 H            1 RES          0.0000
   2605 H           15.1203    33.5665     8.6199 H            1 RES          0.0000
   2606 C           16.6107    32.4772     7.4578 C            1 RES          0.0000
   2607 C           17.1935    33.7191     6.7322 C            1 RES          0.0000
   2608 H           16.6258    31.6054     6.7684 H            1 RES          0.0000
   2609 H           17.2282    32.2485     8.3532 H            1 RES          0.0000
   2610 H           16.5488    33.9325     5.8525 H            1 RES          0.0000
   2611 H           17.1517    34.5762     7.4385 H            1 RES          0.0000
   2612 C           18.6654    33.5340     6.2478 C            1 RES          0.0000
   2613 C           19.2524    34.7927     5.5139 C            1 RES          0.0000
   2614 H           18.6884    32.6668     5.5531 H            1 RES          0.0000
   2615 H           19.2911    33.3103     7.1386 H            1 RES          0.0000
   2616 H           18.6007    35.0013     4.6385 H            1 RES          0.0000
   2617 H           19.2038    35.6451     6.2250 H            1 RES          0.0000
   2618 C           20.7415    34.6438     5.0083 C            1 RES          0.0000
   2619 C           21.3394    35.9150     4.2652 C            1 RES          0.0000
   2620 H           20.7703    33.7809     4.3091 H            1 RES          0.0000
   2621 H           21.3733    34.4246     5.8954 H            1 RES          0.0000
   2622 H           20.6860    36.1212     3.3912 H            1 RES          0.0000
   2623 H           21.2892    36.7651     4.9780 H            1 RES          0.0000
   2624 C           22.8443    35.7912     3.7434 C            1 RES          0.0000
   2625 C           23.4544    37.0726     2.9915 C            1 RES          0.0000
   2626 H           22.8772    34.9323     3.0407 H            1 RES          0.0000
   2627 H           23.4804    35.5762     4.6275 H            1 RES          0.0000
   2628 H           22.8004    37.2766     2.1183 H            1 RES          0.0000
   2629 H           23.4038    37.9207     3.7057 H            1 RES          0.0000
   2630 C           24.9739    36.9667     2.4569 C            1 RES          0.0000
   2631 C           25.5989    38.2563     1.6961 C            1 RES          0.0000
   2632 H           25.0071    36.1096     1.7531 H            1 RES          0.0000
   2633 H           25.6105    36.7536     3.3404 H            1 RES          0.0000
   2634 H           24.9436    38.4581     0.8241 H            1 RES          0.0000
   2635 H           25.5470    39.1023     2.4118 H            1 RES          0.0000
   2636 C           27.1326    38.1670     1.1494 C            1 RES          0.0000
   2637 C           27.7768    39.4617     0.3792 C            1 RES          0.0000
   2638 H           27.1656    37.3111     0.4447 H            1 RES          0.0000
   2639 H           27.7692    37.9553     2.0327 H            1 RES          0.0000
   2640 H           27.1221    39.6631    61.0640 H            1 RES          0.0000
   2641 H           27.7259    40.3075     1.0951 H            1 RES          0.0000
   2642 C           29.3234    39.3871    61.3789 C            1 RES          0.0000
   2643 C           29.9866    40.6851    60.6002 C            1 RES          0.0000
   2644 H           29.3574    38.5319    60.6731 H            1 RES          0.0000
   2645 H           29.9613    39.1764     0.7045 H            1 RES          0.0000
   2646 H           29.3330    40.8873    59.7266 H            1 RES          0.0000
   2647 H           29.9369    41.5320    61.3155 H            1 RES          0.0000
   2648 C           31.5442    40.6240    60.0329 C            1 RES          0.0000
   2649 C           32.2240    41.9243    59.2470 C            1 RES          0.0000
   2650 H           31.5795    39.7692    59.3260 H            1 RES          0.0000
   2651 H           32.1836    40.4139    60.9153 H            1 RES          0.0000
   2652 H           31.5710    42.1269    58.3726 H            1 RES          0.0000
   2653 H           32.1752    42.7718    59.9621 H            1 RES          0.0000
   2654 C           33.7912    41.8748    58.6713 C            1 RES          0.0000
   2655 C           34.4861    43.1773    57.8787 C            1 RES          0.0000
   2656 H           33.8268    41.0199    57.9640 H            1 RES          0.0000
   2657 H           34.4311    41.6649    59.5538 H            1 RES          0.0000
   2658 H           33.8339    43.3803    57.0036 H            1 RES          0.0000
   2659 H           34.4383    44.0254    58.5936 H            1 RES          0.0000
   2660 C           36.0623    43.1372    57.2959 C            1 RES          0.0000
   2661 C           36.7699    44.4424    56.4974 C            1 RES          0.0000
   2662 H           36.0984    42.2830    56.5878 H            1 RES          0.0000
   2663 H           36.7029    42.9281    58.1780 H            1 RES          0.0000
   2664 H           36.1188    44.6454    55.6216 H            1 RES          0.0000
   2665 H           36.7233    45.2906    57.2120 H            1 RES          0.0000
   2666 C           38.3539    44.4103    55.9083 C            1 RES          0.0000
   2667 C           39.0721    45.7178    55.1049 C            1 RES          0.0000
   2668 H           38.3907    43.5568    55.1995 H            1 RES          0.0000
   2669 H           38.9953    44.2021    56.7901 H            1 RES          0.0000
   2670 H           38.4221    45.9210    54.2284 H            1 RES          0.0000
   2671 H           39.0267    46.5663    55.8191 H            1 RES          0.0000
   2672 C           40.6627    45.6923    54.5106 C            1 RES          0.0000
   2673 C           41.3892    47.0020    53.7031 C            1 RES          0.0000
   2674 H           40.7001    44.8396    53.8010 H            1 RES          0.0000
   2675 H           41.3048    45.4850    55.3919 H            1 RES          0.0000
   2676 H           40.7403    47.2052    52.8260 H            1 RES          0.0000
   2677 H           41.3451    47.8506    54.4169 H            1 RES          0.0000
   2678 C           42.9853    46.9814    53.1048 C            1 RES          0.0000
   2679 C           43.7182    48.2931    52.2940 C            1 RES          0.0000
   2680 H           43.0232    46.1296    52.3945 H            1 RES          0.0000
   2681 H           43.6280    46.7751    53.9855 H            1 RES          0.0000
   2682 H           43.0701    48.4962    51.4165 H            1 RES          0.0000
   2683 H           43.6750    49.1417    53.0076 H            1 RES          0.0000
   2684 C           45.3186    48.2763    51.6925 C            1 RES          0.0000
   2685 C           46.0568    49.5896    50.8791 C            1 RES          0.0000
   2686 H           45.3567    47.4251    50.9818 H            1 RES          0.0000
   2687 H           45.9616    48.0706    52.5730 H            1 RES          0.0000
   2688 H           45.4094    49.7926    50.0012 H            1 RES          0.0000
   2689 H           46.0143    50.4382    51.5925 H            1 RES          0.0000
   2690 C           47.6607    49.5761    50.2749 C            1 RES          0.0000
   2691 C           48.4032    50.8903    49.4594 C            1 RES          0.0000
   2692 H           47.6992    48.7253    49.5638 H            1 RES          0.0000
   2693 H           48.3041    49.3709    51.1551 H            1 RES          0.0000
   2694 H           47.7563    51.0935    48.5812 H            1 RES          0.0000
   2695 H           48.3613    51.7392    50.1726 H            1 RES          0.0000
   2696 C           50.0097    50.8796    48.8531 C            1 RES          0.0000
   2697 C           50.7556    52.1945    48.0361 C            1 RES          0.0000
   2698 H           50.0486    50.0291    48.1417 H            1 RES          0.0000
   2699 H           50.6535    50.6748    49.7332 H            1 RES          0.0000
   2700 H           50.1091    52.3979    47.1576 H            1 RES          0.0000
   2701 H           50.7141    53.0436    48.7491 H            1 RES          0.0000
   2702 C           52.3640    52.1860    47.4282 C            1 RES          0.0000
   2703 C           53.1124    53.5013    46.6101 C            1 RES          0.0000
   2704 H           52.4032    51.3356    46.7165 H            1 RES          0.0000
   2705 H           53.0082    51.9814    48.3081 H            1 RES          0.0000
   2706 H           52.4662    53.7048    45.7313 H            1 RES          0.0000
   2707 H           53.0712    54.3506    47.3229 H            1 RES          0.0000
   2708 C           54.7221    53.4944    46.0010 C            1 RES          0.0000
   2709 C           55.4723    54.8099    45.1820 C            1 RES          0.0000
   2710 H           54.7616    52.6441    45.2891 H            1 RES          0.0000
   2711 H           55.3666    53.2899    46.8808 H            1 RES          0.0000
   2712 H           54.8264    55.0136    44.3031 H            1 RES          0.0000
   2713 H           55.4314    55.6594    45.8947 H            1 RES          0.0000
   2714 C           57.0830    54.8042    44.5721 C            1 RES          0.0000
   2715 C           57.8346    56.1200    43.7525 C            1 RES          0.0000
   2716 H           57.1228    53.9540    43.8601 H            1 RES          0.0000
   2717 H           57.7278    54.5999    45.4518 H            1 RES          0.0000
   2718 H           57.1888    56.3237    42.8735 H            1 RES          0.0000
   2719 H           57.7938    56.9696    44.4651 H            1 RES          0.0000
   2720 C           59.4460    56.1150    43.1421 C            1 RES          0.0000
   2721 C           60.1985    57.4311    42.3220 C            1 RES          0.0000
   2722 H           59.4859    55.2650    42.4300 H            1 RES          0.0000
   2723 H           60.0909    55.9108    44.0216 H            1 RES          0.0000
   2724 H           59.5529    57.6348    41.4429 H            1 RES          0.0000
   2725 H           60.1579    58.2807    43.0346 H            1 RES          0.0000
   2726 C            0.2532    57.4266    41.7112 C            1 RES          0.0000
   2727 C            1.0062    58.7428    40.8908 C            1 RES          0.0000
   2728 H            0.2932    56.5766    40.9990 H            1 RES          0.0000
   2729 H            0.8982    57.2225    42.5907 H            1 RES          0.0000
   2730 H            0.3608    58.9466    40.0116 H            1 RES          0.0000
   2731 H            0.9658    59.5925    41.6033 H            1 RES          0.0000
   2732 C            2.6186    58.7387    40.2797 C            1 RES          0.0000
   2733 C            3.3720    60.0550    39.4592 C            1 RES          0.0000
   2734 H            2.6587    57.8888    39.5674 H            1 RES          0.0000
   2735 H            3.2637    58.5347    41.1592 H            1 RES          0.0000
   2736 H            2.7266    60.2588    38.5799 H            1 RES          0.0000
   2737 H            3.3316    60.9047    40.1716 H            1 RES          0.0000
   2738 C            4.9846    60.0511    38.8479 C            1 RES          0.0000
   2739 C            5.7383    61.3675    38.0272 C            1 RES          0.0000
   2740 H            5.0248    59.2013    38.1356 H            1 RES          0.0000
   2741 H            5.6297    59.8472    39.7273 H            1 RES          0.0000
   2742 H            5.0930     0.0141    37.1479 H            1 RES          0.0000
   2743 H            5.6979     0.6600    38.7396 H            1 RES          0.0000
   2744 C            7.3510    61.3638    37.4158 C            1 RES          0.0000
   2745 C            8.1049     1.1230    36.5950 C            1 RES          0.0000
   2746 H            7.3913    60.5140    36.7035 H            1 RES          0.0000
   2747 H            7.9962    61.1599    38.2952 H            1 RES          0.0000
   2748 H            7.4596     1.3268    35.7157 H            1 RES          0.0000
   2749 H            8.0646     1.9727    37.3074 H            1 RES          0.0000
   2750 C            9.7177     1.1193    35.9836 C            1 RES          0.0000
   2751 C           10.4717     2.4358    35.1628 C            1 RES          0.0000
   2752 H            9.7580     0.2695    35.2712 H            1 RES          0.0000
   2753 H           10.3629     0.9155    36.8630 H            1 RES          0.0000
   2754 H            9.8264     2.6396    34.2834 H            1 RES          0.0000
   2755 H           10.4314     3.2856    35.8751 H            1 RES          0.0000
   2756 C           12.0846     2.4322    34.5513 C            1 RES          0.0000
   2757 C           12.8386     3.7487    33.7304 C            1 RES          0.0000
   2758 H           12.1248     1.5824    33.8389 H            1 RES          0.0000
   2759 H           12.7298     2.2284    35.4307 H            1 RES          0.0000
   2760 H           12.1934     3.9525    32.8510 H            1 RES          0.0000
   2761 H           12.7983     4.5985    34.4428 H            1 RES          0.0000
   2762 C           14.4515     3.7451    33.1189 C            1 RES          0.0000
   2763 C           15.2056     5.0616    32.2980 C            1 RES          0.0000
   2764 H           14.4918     2.8953    32.4066 H            1 RES          0.0000
   2765 H           15.0967     3.5413    33.9983 H            1 RES          0.0000
   2766 H           14.5604     5.2654    31.4186 H            1 RES          0.0000
   2767 H           15.1653     5.9114    33.0104 H            1 RES          0.0000
   2768 C           16.8185     5.0581    31.6865 C            1 RES          0.0000
   2769 C           17.5726     6.3745    30.8656 C            1 RES          0.0000
   2770 H           16.8588     4.2083    30.9742 H            1 RES          0.0000
   2771 H           17.4637     4.8543    32.5659 H            1 RES          0.0000
   2772 H           16.9274     6.5783    29.9862 H            1 RES          0.0000
   2773 H           17.5323     7.2243    31.5780 H            1 RES          0.0000
   2774 C           19.1855     6.3710    30.2541 C            1 RES          0.0000
   2775 C           19.9397     7.6875    29.4332 C            1 RES          0.0000
   2776 H           19.2259     5.5212    29.5418 H            1 RES          0.0000
   2777 H           19.8308     6.1672    31.1335 H            1 RES          0.0000
   2778 H           19.2944     7.8913    28.5538 H            1 RES          0.0000
   2779 H           19.8993     8.5373    30.1455 H            1 RES          0.0000
   2780 C           21.5526     7.6840    28.8217 C            1 RES          0.0000
   2781 C           22.3067     9.0004    28.0008 C            1 RES          0.0000
   2782 H           21.5929     6.8341    28.1093 H            1 RES          0.0000
   2783 H           22.1978     7.4802    29.7011 H            1 RES          0.0000
   2784 H           21.6615     9.2042    27.1213 H            1 RES          0.0000
   2785 H           22.2664     9.8502    28.7131 H            1 RES          0.0000
   2786 C           23.9197     8.9969    27.3892 C            1 RES          0.0000
   2787 C           24.6738    10.3133    26.5683 C            1 RES          0.0000
   2788 H           23.9600     8.1471    26.6769 H            1 RES          0.0000
   2789 H           24.5649     8.7931    28.2687 H            1 RES          0.0000
   2790 H           24.0286    10.5171    25.6889 H            1 RES          0.0000
   2791 H           24.6335    11.1632    27.2806 H            1 RES          0.0000
   2792 C           26.2867    10.3098    25.9568 C            1 RES          0.0000
   2793 C           27.0409    11.6263    25.1359 C            1 RES          0.0000
   2794 H           26.3271     9.4600    25.2445 H            1 RES          0.0000
   2795 H           26.9319    10.1061    26.8362 H            1 RES          0.0000
   2796 H           26.3956    11.8300    24.2565 H            1 RES          0.0000
   2797 H           27.0005    12.4761    25.8482 H            1 RES          0.0000
   2798 C           28.6538    11.6228    24.5244 C            1 RES          0.0000
   2799 C           29.4079    12.9392    23.7034 C            1 RES          0.0000
   2800 H           28.6941    10.7729    23.8121 H            1 RES          0.0000
   2801 H           29.2990    11.4190    25.4038 H            1 RES          0.0000
   2802 H           28.7627    13.1429    22.8240 H            1 RES          0.0000
   2803 H           29.3676    13.7891    24.4157 H            1 RES          0.0000
   2804 C           31.0209    12.9357    23.0919 C            1 RES          0.0000
   2805 C           31.7750    14.2521    22.2710 C            1 RES          0.0000
   2806 H           31.0612    12.0859    22.3796 H            1 RES          0.0000
   2807 H           31.6661    12.7320    23.9713 H            1 RES          0.0000
   2808 H           31.1298    14.4559    21.3915 H            1 RES          0.0000
   2809 H           31.7346    15.1020    22.9832 H            1 RES          0.0000
   2810 C           33.3879    14.2487    21.6595 C            1 RES          0.0000
   2811 C           34.1420    15.5651    20.8385 C            1 RES          0.0000
   2812 H           33.4283    13.3988    20.9472 H            1 RES          0.0000
   2813 H           34.0331    14.0449    22.5389 H            1 RES          0.0000
   2814 H           33.4968    15.7688    19.9591 H            1 RES          0.0000
   2815 H           34.1017    16.4149    21.5508 H            1 RES          0.0000
   2816 C           35.7550    15.5616    20.2270 C            1 RES          0.0000
   2817 C           36.5091    16.8780    19.4060 C            1 RES          0.0000
   2818 H           35.7954    14.7117    19.5147 H            1 RES          0.0000
   2819 H           36.4002    15.3579    21.1064 H            1 RES          0.0000
   2820 H           35.8639    17.0817    18.5266 H            1 RES          0.0000
   2821 H           36.4687    17.7279    20.1183 H            1 RES          0.0000
   2822 C           38.1220    16.8745    18.7945 C            1 RES          0.0000
   2823 C           38.8761    18.1910    17.9736 C            1 RES          0.0000
   2824 H           38.1624    16.0247    18.0823 H            1 RES          0.0000
   2825 H           38.7672    16.6708    19.6740 H            1 RES          0.0000
   2826 H           38.2309    18.3947    17.0941 H            1 RES          0.0000
   2827 H           38.8358    19.0408    18.6858 H            1 RES          0.0000
   2828 C           40.4891    18.1875    17.3621 C            1 RES          0.0000
   2829 C           41.2432    19.5039    16.5411 C            1 RES          0.0000
   2830 H           40.5295    17.3376    16.6498 H            1 RES          0.0000
   2831 H           41.1343    17.9838    18.2415 H            1 RES          0.0000
   2832 H           40.5980    19.7076    15.6617 H            1 RES          0.0000
   2833 H           41.2028    20.3538    17.2534 H            1 RES          0.0000
   2834 C           42.8561    19.5004    15.9296 C            1 RES          0.0000
   2835 C           43.6102    20.8169    15.1087 C            1 RES          0.0000
   2836 H           42.8965    18.6506    15.2174 H            1 RES          0.0000
   2837 H           43.5013    19.2967    16.8091 H            1 RES          0.0000
   2838 H           42.9650    21.0206    14.2292 H            1 RES          0.0000
   2839 H           43.5699    21.6667    15.8209 H            1 RES          0.0000
   2840 C           45.2232    20.8134    14.4972 C            1 RES          0.0000
   2841 C           45.9773    22.1298    13.6763 C            1 RES          0.0000
   2842 H           45.2636    19.9635    13.7849 H            1 RES          0.0000
   2843 H           45.8684    20.6097    15.3766 H            1 RES          0.0000
   2844 H           45.3321    22.3335    12.7968 H            1 RES          0.0000
   2845 H           45.9369    22.9797    14.3885 H            1 RES          0.0000
   2846 C           47.5902    22.1264    13.0648 C            1 RES          0.0000
   2847 C           48.3443    23.4428    12.2438 C            1 RES          0.0000
   2848 H           47.6306    21.2765    12.3525 H            1 RES          0.0000
   2849 H           48.2354    21.9226    13.9442 H            1 RES          0.0000
   2850 H           47.6991    23.6465    11.3644 H            1 RES          0.0000
   2851 H           48.3039    24.2926    12.9561 H            1 RES          0.0000
   2852 C           49.9572    23.4393    11.6323 C            1 RES          0.0000
   2853 C           50.7113    24.7557    10.8114 C            1 RES          0.0000
   2854 H           49.9976    22.5894    10.9201 H            1 RES          0.0000
   2855 H           50.6025    23.2356    12.5118 H            1 RES          0.0000
   2856 H           50.0661    24.9595     9.9320 H            1 RES          0.0000
   2857 H           50.6710    25.6056    11.5237 H            1 RES          0.0000
   2858 C           52.3242    24.7522    10.2000 C            1 RES          0.0000
   2859 C           53.0783    26.0686     9.3791 C            1 RES          0.0000
   2860 H           52.3646    23.9024     9.4877 H            1 RES          0.0000
   2861 H           52.9694    24.5485    11.0794 H            1 RES          0.0000
   2862 H           52.4331    26.2724     8.4996 H            1 RES          0.0000
   2863 H           53.0379    26.9185    10.0914 H            1 RES          0.0000
   2864 C           54.6911    26.0651     8.7676 C            1 RES          0.0000
   2865 C           55.4451    27.3815     7.9468 C            1 RES          0.0000
   2866 H           54.7315    25.2153     8.0553 H            1 RES          0.0000
   2867 H           55.3364    25.8613     9.6470 H            1 RES          0.0000
   2868 H           54.7999    27.5853     7.0673 H            1 RES          0.0000
   2869 H           55.4048    28.2313     8.6591 H            1 RES          0.0000
   2870 C           57.0579    27.3779     7.3354 C            1 RES          0.0000
   2871 C           57.8118    28.6943     6.5146 C            1 RES          0.0000
   2872 H           57.0983    26.5281     6.6230 H            1 RES          0.0000
   2873 H           57.7032    27.1741     8.2147 H            1 RES          0.0000
   2874 H           57.1667    28.8981     5.6351 H            1 RES          0.0000
   2875 H           57.7716    29.5441     7.2268 H            1 RES          0.0000
   2876 C           59.4246    28.6905     5.9032 C            1 RES          0.0000
   2877 C           60.1783    30.0069     5.0825 C            1 RES          0.0000
   2878 H           59.4650    27.8408     5.1909 H            1 RES          0.0000
   2879 H           60.0699    28.4868     6.7826 H            1 RES          0.0000
   2880 H           59.5332    30.2108     4.2031 H            1 RES          0.0000
   2881 H           60.1381    30.8568     5.7948 H            1 RES          0.0000
   2882 C            0.2336    30.0030     4.4713 C            1 RES          0.0000
   2883 C            0.9871    31.3193     3.6507 C            1 RES          0.0000
   2884 H            0.2741    29.1533     3.7589 H            1 RES          0.0000
   2885 H            0.8790    29.7993     5.3506 H            1 RES          0.0000
   2886 H            0.3420    31.5233     2.7712 H            1 RES          0.0000
   2887 H            0.9469    32.1692     4.3629 H            1 RES          0.0000
   2888 C            2.5994    31.3152     3.0396 C            1 RES          0.0000
   2889 C            3.3525    32.6314     2.2193 C            1 RES          0.0000
   2890 H            2.6399    30.4655     2.3272 H            1 RES          0.0000
   2891 H            3.2449    31.1115     3.9189 H            1 RES          0.0000
   2892 H            2.7075    32.8354     1.3397 H            1 RES          0.0000
   2893 H            3.3124    33.4814     2.9314 H            1 RES          0.0000
   2894 C            4.9644    32.6269     1.6084 C            1 RES          0.0000
   2895 C            5.7169    33.9430     0.7884 C            1 RES          0.0000
   2896 H            5.0051    31.7773     0.8959 H            1 RES          0.0000
   2897 H            5.6100    32.4232     2.4876 H            1 RES          0.0000
   2898 H            5.0720    34.1471    61.4660 H            1 RES          0.0000
   2899 H            5.6769    34.7930     1.5004 H            1 RES          0.0000
   2900 C            7.3283    33.9380     0.1779 C            1 RES          0.0000
   2901 C            8.0799    35.2538    60.9156 C            1 RES          0.0000
   2902 H            7.3691    33.0884    61.0226 H            1 RES          0.0000
   2903 H            7.9741    33.7343     1.0570 H            1 RES          0.0000
   2904 H            7.4351    35.4581    60.0359 H            1 RES          0.0000
   2905 H            8.0401    36.1040     0.0703 H            1 RES          0.0000
   2906 C            9.6906    35.2481    60.3057 C            1 RES          0.0000
   2907 C           10.4408    36.5636    59.4867 C            1 RES          0.0000
   2908 H            9.7316    34.3986    59.5930 H            1 RES          0.0000
   2909 H           10.3365    35.0444    61.1847 H            1 RES          0.0000
   2910 H            9.7963    36.7680    58.6069 H            1 RES          0.0000
   2911 H           10.4012    37.4139    60.1985 H            1 RES          0.0000
   2912 C           12.0505    36.5567    58.8777 C            1 RES          0.0000
   2913 C           12.7989    37.8720    58.0595 C            1 RES          0.0000
   2914 H           12.0917    35.7074    58.1649 H            1 RES          0.0000
   2915 H           12.6966    36.3532    59.7565 H            1 RES          0.0000
   2916 H           12.1547    38.0766    57.1796 H            1 RES          0.0000
   2917 H           12.7596    38.7224    58.7711 H            1 RES          0.0000
   2918 C           14.4072    37.8635    57.4517 C            1 RES          0.0000
   2919 C           15.1531    39.1784    56.6346 C            1 RES          0.0000
   2920 H           14.4488    37.0144    56.7387 H            1 RES          0.0000
   2921 H           15.0537    37.6601    58.3302 H            1 RES          0.0000
   2922 H           14.5093    39.3832    55.7545 H            1 RES          0.0000
   2923 H           15.1142    40.0289    57.3460 H            1 RES          0.0000
   2924 C           16.7596    39.1677    56.0284 C            1 RES          0.0000
   2925 C           17.5020    40.4819    55.2129 C            1 RES          0.0000
   2926 H           16.8016    38.3188    55.3152 H            1 RES          0.0000
   2927 H           17.4065    38.9645    56.9065 H            1 RES          0.0000
   2928 H           16.8587    40.6871    54.3326 H            1 RES          0.0000
   2929 H           17.4635    41.3327    55.9239 H            1 RES          0.0000
   2930 C           19.1059    40.4684    54.6087 C            1 RES          0.0000
   2931 C           19.8441    41.7817    53.7953 C            1 RES          0.0000
   2932 H           19.1485    39.6198    53.8953 H            1 RES          0.0000
   2933 H           19.7533    40.2654    55.4866 H            1 RES          0.0000
   2934 H           19.2011    41.9874    52.9147 H            1 RES          0.0000
   2935 H           19.8059    42.6330    54.5059 H            1 RES          0.0000
   2936 C           21.4446    41.7649    53.1938 C            1 RES          0.0000
   2937 C           22.1774    43.0766    52.3830 C            1 RES          0.0000
   2938 H           21.4878    40.9162    52.4802 H            1 RES          0.0000
   2939 H           22.0926    41.5618    54.0713 H            1 RES          0.0000
   2940 H           21.5347    43.2829    51.5022 H            1 RES          0.0000
   2941 H           22.1394    43.9284    53.0932 H            1 RES          0.0000
   2942 C           23.7734    43.0560    51.7847 C            1 RES          0.0000
   2943 C           24.4999    44.3657    50.9772 C            1 RES          0.0000
   2944 H           23.8176    42.2074    51.0709 H            1 RES          0.0000
   2945 H           24.4223    42.8528    52.6618 H            1 RES          0.0000
   2946 H           23.8578    44.5730    50.0959 H            1 RES          0.0000
   2947 H           24.4625    45.2184    51.6867 H            1 RES          0.0000
   2948 C           26.0905    44.3401    50.3830 C            1 RES          0.0000
   2949 C           26.8086    45.6477    49.5795 C            1 RES          0.0000
   2950 H           26.1359    43.4917    49.6688 H            1 RES          0.0000
   2951 H           26.7405    44.1370    51.2595 H            1 RES          0.0000
   2952 H           26.1673    45.8559    48.6977 H            1 RES          0.0000
   2953 H           26.7718    46.5012    50.2883 H            1 RES          0.0000
   2954 C           28.3926    45.6156    48.9904 C            1 RES          0.0000
   2955 C           29.1002    46.9207    48.1919 C            1 RES          0.0000
   2956 H           28.4392    44.7673    48.2759 H            1 RES          0.0000
   2957 H           29.0437    45.4126    49.8663 H            1 RES          0.0000
   2958 H           28.4596    47.1298    47.3098 H            1 RES          0.0000
   2959 H           29.0640    47.7749    48.9000 H            1 RES          0.0000
   2960 C           30.6763    46.8806    47.6091 C            1 RES          0.0000
   2961 C           31.3712    48.1832    46.8165 C            1 RES          0.0000
   2962 H           30.7241    46.0325    46.8943 H            1 RES          0.0000
   2963 H           31.3285    46.6776    48.4843 H            1 RES          0.0000
   2964 H           30.7313    48.3930    45.9340 H            1 RES          0.0000
   2965 H           31.3356    49.0380    47.5239 H            1 RES          0.0000
   2966 C           32.9384    48.1336    46.2409 C            1 RES          0.0000
   2967 C           33.6182    49.4339    45.4550 C            1 RES          0.0000
   2968 H           32.9872    47.2861    45.5258 H            1 RES          0.0000
   2969 H           33.5914    47.9310    47.1153 H            1 RES          0.0000
   2970 H           32.9787    49.6439    44.5726 H            1 RES          0.0000
   2971 H           33.5828    50.2887    46.1619 H            1 RES          0.0000
   2972 C           35.1758    49.3727    44.8877 C            1 RES          0.0000
   2973 C           35.8388    50.6707    44.1091 C            1 RES          0.0000
   2974 H           35.2254    48.5259    44.1724 H            1 RES          0.0000
   2975 H           35.8294    49.1705    45.7614 H            1 RES          0.0000
   2976 H           35.2010    50.8815    43.2262 H            1 RES          0.0000
   2977 H           35.8048    51.5260    44.8149 H            1 RES          0.0000
   2978 C           37.3854    50.5961    43.5515 C            1 RES          0.0000
   2979 C           38.0296    51.8908    42.7813 C            1 RES          0.0000
   2980 H           37.4364    49.7503    42.8356 H            1 RES          0.0000
   2981 H           38.0401    50.3948    44.4240 H            1 RES          0.0000
   2982 H           37.3930    52.1025    41.8980 H            1 RES          0.0000
   2983 H           37.9966    52.7468    43.4860 H            1 RES          0.0000
   2984 C           39.5633    51.8015    42.2346 C            1 RES          0.0000
   2985 C           40.1883    53.0911    41.4738 C            1 RES          0.0000
   2986 H           39.6151    50.9555    41.5189 H            1 RES          0.0000
   2987 H           40.2186    51.5996    43.1066 H            1 RES          0.0000
   2988 H           39.5517    53.3042    40.5903 H            1 RES          0.0000
   2989 H           40.1550    53.9482    42.1777 H            1 RES          0.0000
   2990 C           41.7077    52.9852    40.9393 C            1 RES          0.0000
   2991 C           42.3179    54.2665    40.1875 C            1 RES          0.0000
   2992 H           41.7583    52.1371    40.2251 H            1 RES          0.0000
   2993 H           42.3617    52.7811    41.8125 H            1 RES          0.0000
   2994 H           41.6818    54.4816    39.3033 H            1 RES          0.0000
   2995 H           42.2849    55.1254    40.8902 H            1 RES          0.0000
   2996 C           43.8228    54.1426    39.6657 C            1 RES          0.0000
   2997 C           44.4208    55.4138    38.9227 C            1 RES          0.0000
   2998 H           43.8730    53.2925    38.9529 H            1 RES          0.0000
   2999 H           44.4761    53.9364    40.5398 H            1 RES          0.0000
   3000 H           43.7890    55.6331    38.0355 H            1 RES          0.0000
   3001 H           44.3919    56.2767    39.6218 H            1 RES          0.0000
   3002 C           45.9099    55.2648    38.4172 C            1 RES          0.0000
   3003 C           46.4970    56.5234    37.6833 C            1 RES          0.0000
   3004 H           45.9584    54.4124    37.7061 H            1 RES          0.0000
   3005 H           46.5614    55.0561    39.2927 H            1 RES          0.0000
   3006 H           45.8714    56.7473    36.7925 H            1 RES          0.0000
   3007 H           46.4740    57.3906    38.3780 H            1 RES          0.0000
   3008 C           47.9690    56.3381    37.1991 C            1 RES          0.0000
   3009 C           48.5520    57.5800    36.4736 C            1 RES          0.0000
   3010 H           48.0107    55.4811    36.4928 H            1 RES          0.0000
   3011 H           48.6135    56.1246    38.0789 H            1 RES          0.0000
   3012 H           47.9346    57.8087    35.5781 H            1 RES          0.0000
   3013 H           48.5370    58.4518    37.1630 H            1 RES          0.0000
   3014 C           50.0068    57.3508    36.0137 C            1 RES          0.0000
   3015 C           50.5898    58.5710    35.2970 C            1 RES          0.0000
   3016 H           51.6371    58.3623    34.9837 H            1 RES          0.0000
   3017 H           50.0424    56.4904    35.3117 H            1 RES          0.0000
   3018 H           50.6449    57.1336    36.8969 H            1 RES          0.0000
   3019 H           49.9951    58.8131    34.3913 H            1 RES          0.0000
   3020 H           50.5952    59.4538    35.9704 H            1 RES          0.0000
@<TRIPOS>BOND
     1      1      2   1
     2      2      3   1
     3      2      4   1
     4      2      5   1
     5      3      6   1
     6      3      7   1
     7      8      9   1
     8      8     10   1
     9      8     11   1
    10      9     12   1
    11      9     13   1
    12      3      8   1
    13     14     15   1
    14     14     16   1
    15     14     17   1
    16     15     18   1
    17     15     19   1
    18      9     14   1
    19     20     21   1
    20     20     22   1
    21     20     23   1
    22     21     24   1
    23     21     25   1
    24     15     20   1
    25     26     27   1
    26     26     28   1
    27     26     29   1
    28     27     30   1
    29     27     31   1
    30     21     26   1
    31     32     33   1
    32     32     34   1
    33     32     35   1
    34     33     36   1
    35     33     37   1
    36     27     32   1
    37     38     39   1
    38     38     40   1
    39     38     41   1
    40     39     42   1
    41     39     43   1
    42     33     38   1
    43     44     45   1
    44     44     46   1
    45     44     47   1
    46     45     48   1
    47     45     49   1
    48     39     44   1
    49     50     51   1
    50     50     52   1
    51     50     53   1
    52     51     54   1
    53     51     55   1
    54     45     50   1
    55     56     57   1
    56     56     58   1
    57     56     59   1
    58     57     60   1
    59     57     61   1
    60     51     56   1
    61     62     63   1
    62     62     64   1
    63     62     65   1
    64     63     66   1
    65     63     67   1
    66     57     62   1
    67     68     69   1
    68     68     70   1
    69     68     71   1
    70     69     72   1
    71     69     73   1
    72     63     68   1
    73     74     75   1
    74     74     76   1
    75     74     77   1
    76     75     78   1
    77     75     79   1
    78     69     74   1
    79     80     81   1
    80     80     82   1
    81     80     83   1
    82     81     84   1
    83     81     85   1
    84     75     80   1
    85     86     87   1
    86     86     88   1
    87     86     89   1
    88     87     90   1
    89     87     91   1
    90     81     86   1
    91     92     93   1
    92     92     94   1
    93     92     95   1
    94     93     96   1
    95     93     97   1
    96     87     92   1
    97     98     99   1
    98     98    100   1
    99     98    101   1
   100     99    102   1
   101     99    103   1
   102     93     98   1
   103    104    105   1
   104    104    106   1
   105    104    107   1
   106    105    108   1
   107    105    109   1
   108     99    104   1
   109    110    111   1
   110    110    112   1
   111    110    113   1
   112    111    114   1
   113    111    115   1
   114    105    110   1
   115    116    117   1
   116    116    118   1
   117    116    119   1
   118    117    120   1
   119    117    121   1
   120    111    116   1
   121    122    123   1
   122    122    124   1
   123    122    125   1
   124    123    126   1
   125    123    127   1
   126    117    122   1
   127    128    129   1
   128    128    130   1
   129    128    131   1
   130    129    132   1
   131    129    133   1
   132    123    128   1
   133    134    135   1
   134    134    136   1
   135    134    137   1
   136    135    138   1
   137    135    139   1
   138    129    134   1
   139    140    141   1
   140    140    142   1
   141    140    143   1
   142    141    144   1
   143    141    145   1
   144    135    140   1
   145    146    147   1
   146    146    148   1
   147    146    149   1
   148    147    150   1
   149    147    151   1
   150    141    146   1
   151    152    153   1
   152    152    154   1
   153    152    155   1
   154    153    156   1
   155    153    157   1
   156    147    152   1
   157    158    159   1
   158    158    160   1
   159    158    161   1
   160    159    162   1
   161    159    163   1
   162    153    158   1
   163    164    165   1
   164    164    166   1
   165    164    167   1
   166    165    168   1
   167    165    169   1
   168    159    164   1
   169    170    171   1
   170    170    172   1
   171    170    173   1
   172    171    174   1
   173    171    175   1
   174    165    170   1
   175    176    177   1
   176    177    178   1
   177    176    179   1
   178    176    180   1
   179    177    181   1
   180    177    182   1
   181    171    176   1
   182    183    184   1
   183    184    185   1
   184    184    186   1
   185    184    187   1
   186    185    188   1
   187    185    189   1
   188    190    191   1
   189    190    192   1
   190    190    193   1
   191    191    194   1
   192    191    195   1
   193    185    190   1
   194    196    197   1
   195    196    198   1
   196    196    199   1
   197    197    200   1
   198    197    201   1
   199    191    196   1
   200    202    203   1
   201    202    204   1
   202    202    205   1
   203    203    206   1
   204    203    207   1
   205    197    202   1
   206    208    209   1
   207    208    210   1
   208    208    211   1
   209    209    212   1
   210    209    213   1
   211    203    208   1
   212    214    215   1
   213    214    216   1
   214    214    217   1
   215    215    218   1
   216    215    219   1
   217    209    214   1
   218    220    221   1
   219    220    222   1
   220    220    223   1
   221    221    224   1
   222    221    225   1
   223    215    220   1
   224    226    227   1
   225    226    228   1
   226    226    229   1
   227    227    230   1
   228    227    231   1
   229    221    226   1
   230    232    233   1
   231    232    234   1
   232    232    235   1
   233    233    236   1
   234    233    237   1
   235    227    232   1
   236    238    239   1
   237    238    240   1
   238    238    241   1
   239    239    242   1
   240    239    243   1
   241    233    238   1
   242    244    245   1
   243    244    246   1
   244    244    247   1
   245    245    248   1
   246    245    249   1
   247    239    244   1
   248    250    251   1
   249    250    252   1
   250    250    253   1
   251    251    254   1
   252    251    255   1
   253    245    250   1
   254    256    257   1
   255    256    258   1
   256    256    259   1
   257    257    260   1
   258    257    261   1
   259    251    256   1
   260    262    263   1
   261    262    264   1
   262    262    265   1
   263    263    266   1
   264    263    267   1
   265    257    262   1
   266    268    269   1
   267    268    270   1
   268    268    271   1
   269    269    272   1
   270    269    273   1
   271    263    268   1
   272    274    275   1
   273    274    276   1
   274    274    277   1
   275    275    278   1
   276    275    279   1
   277    269    274   1
   278    280    281   1
   279    280    282   1
   280    280    283   1
   281    281    284   1
   282    281    285   1
   283    275    280   1
   284    286    287   1
   285    286    288   1
   286    286    289   1
   287    287    290   1
   288    287    291   1
   289    281    286   1
   290    292    293   1
   291    292    294   1
   292    292    295   1
   293    293    296   1
   294    293    297   1
   295    287    292   1
   296    298    299   1
   297    298    300   1
   298    298    301   1
   299    299    302   1
   300    299    303   1
   301    293    298   1
   302    304    305   1
   303    304    306   1
   304    304    307   1
   305    305    308   1
   306    305    309   1
   307    299    304   1
   308    310    311   1
   309    310    312   1
   310    310    313   1
   311    311    314   1
   312    311    315   1
   313    305    310   1
   314    316    317   1
   315    316    318   1
   316    316    319   1
   317    317    320   1
   318    317    321   1
   319    311    316   1
   320    322    323   1
   321    322    324   1
   322    322    325   1
   323    323    326   1
   324    323    327   1
   325    317    322   1
   326    328    329   1
   327    328    330   1
   328    328    331   1
   329    329    332   1
   330    329    333   1
   331    323    328   1
   332    334    335   1
   333    334    336   1
   334    334    337   1
   335    335    338   1
   336    335    339   1
   337    329    334   1
   338    340    341   1
   339    340    342   1
   340    340    343   1
   341    341    344   1
   342    341    345   1
   343    335    340   1
   344    346    347   1
   345    346    348   1
   346    346    349   1
   347    347    350   1
   348    347    351   1
   349    341    346   1
   350    352    353   1
   351    352    354   1
   352    352    355   1
   353    353    356   1
   354    353    357   1
   355    347    352   1
   356    358    359   1
   357    358    360   1
   358    358    361   1
   359    359    362   1
   360    359    363   1
   361    353    358   1
   362    364    365   1
   363    364    366   1
   364    364    367   1
   365    365    368   1
   366    365    369   1
   367    359    364   1
   368    370    371   1
   369    370    372   1
   370    370    373   1
   371    371    374   1
   372    371    375   1
   373    365    370   1
   374    376    377   1
   375    376    378   1
   376    376    379   1
   377    377    380   1
   378    377    381   1
   379    371    376   1
   380    382    383   1
   381    382    384   1
   382    382    385   1
   383    383    386   1
   384    383    387   1
   385    377    382   1
   386    388    389   1
   387    388    390   1
   388    388    391   1
   389    389    392   1
   390    389    393   1
   391    383    388   1
   392    394    395   1
   393    394    396   1
   394    394    397   1
   395    395    398   1
   396    395    399   1
   397    389    394   1
   398    400    401   1
   399    400    402   1
   400    400    403   1
   401    401    404   1
   402    401    405   1
   403    395    400   1
   404    406    407   1
   405    406    408   1
   406    406    409   1
   407    407    410   1
   408    407    411   1
   409    401    406   1
   410    412    413   1
   411    412    414   1
   412    412    415   1
   413    413    416   1
   414    413    417   1
   415    407    412   1
   416    418    419   1
   417    419    420   1
   418    418    421   1
   419    418    422   1
   420    419    423   1
   421    419    424   1
   422    413    418   1
   423    425    426   1
   424    426    427   1
   425    426    428   1
   426    426    429   1
   427    427    430   1
   428    427    431   1
   429    432    433   1
   430    432    434   1
   431    432    435   1
   432    433    436   1
   433    433    437   1
   434    427    432   1
   435    438    439   1
   436    438    440   1
   437    438    441   1
   438    439    442   1
   439    439    443   1
   440    433    438   1
   441    444    445   1
   442    444    446   1
   443    444    447   1
   444    445    448   1
   445    445    449   1
   446    439    444   1
   447    450    451   1
   448    450    452   1
   449    450    453   1
   450    451    454   1
   451    451    455   1
   452    445    450   1
   453    456    457   1
   454    456    458   1
   455    456    459   1
   456    457    460   1
   457    457    461   1
   458    451    456   1
   459    462    463   1
   460    462    464   1
   461    462    465   1
   462    463    466   1
   463    463    467   1
   464    457    462   1
   465    468    469   1
   466    468    470   1
   467    468    471   1
   468    469    472   1
   469    469    473   1
   470    463    468   1
   471    474    475   1
   472    474    476   1
   473    474    477   1
   474    475    478   1
   475    475    479   1
   476    469    474   1
   477    480    481   1
   478    480    482   1
   479    480    483   1
   480    481    484   1
   481    481    485   1
   482    475    480   1
   483    486    487   1
   484    486    488   1
   485    486    489   1
   486    487    490   1
   487    487    491   1
   488    481    486   1
   489    492    493   1
   490    492    494   1
   491    492    495   1
   492    493    496   1
   493    493    497   1
   494    487    492   1
   495    498    499   1
   496    498    500   1
   497    498    501   1
   498    499    502   1
   499    499    503   1
   500    493    498   1
   501    504    505   1
   502    504    506   1
   503    504    507   1
   504    505    508   1
   505    505    509   1
   506    499    504   1
   507    510    511   1
   508    510    512   1
   509    510    513   1
   510    511    514   1
   511    511    515   1
   512    505    510   1
   513    516    517   1
   514    516    518   1
   515    516    519   1
   516    517    520   1
   517    517    521   1
   518    511    516   1
   519    522    523   1
   520    522    524   1
   521    522    525   1
   522    523    526   1
   523    523    527   1
   524    517    522   1
   525    528    529   1
   526    528    530   1
   527    528    531   1
   528    529    532   1
   529    529    533   1
   530    523    528   1
   531    534    535   1
   532    534    536   1
   533    534    537   1
   534    535    538   1
   535    535    539   1
   536    529    534   1
   537    540    541   1
   538    540    542   1
   539    540    543   1
   540    541    544   1
   541    541    545   1
   542    535    540   1
   543    546    547   1
   544    546    548   1
   545    546    549   1
   546    547    550   1
   547    547    551   1
   548    541    546   1
   549    552    553   1
   550    552    554   1
   551    552    555   1
   552    553    556   1
   553    553    557   1
   554    547    552   1
   555    558    559   1
   556    558    560   1
   557    558    561   1
   558    559    562   1
   559    559    563   1
   560    553    558   1
   561    564    565   1
   562    564    566   1
   563    564    567   1
   564    565    568   1
   565    565    569   1
   566    559    564   1
   567    570    571   1
   568    570    572   1
   569    570    573   1
   570    571    574   1
   571    571    575   1
   572    565    570   1
   573    576    577   1
   574    576    578   1
   575    576    579   1
   576    577    580   1
   577    577    581   1
   578    571    576   1
   579    582    583   1
   580    582    584   1
   581    582    585   1
   582    583    586   1
   583    583    587   1
   584    577    582   1
   585    588    589   1
   586    588    590   1
   587    588    591   1
   588    589    592   1
   589    589    593   1
   590    583    588   1
   591    594    595   1
   592    594    596   1
   593    594    597   1
   594    595    598   1
   595    595    599   1
   596    589    594   1
   597    600    601   1
   598    600    602   1
   599    600    603   1
   600    601    604   1
   601    601    605   1
   602    595    600   1
   603    606    607   1
   604    606    608   1
   605    606    609   1
   606    607    610   1
   607    607    611   1
   608    601    606   1
   609    612    613   1
   610    612    614   1
   611    612    615   1
   612    613    616   1
   613    613    617   1
   614    607    612   1
   615    618    619   1
   616    618    620   1
   617    618    621   1
   618    619    622   1
   619    619    623   1
   620    613    618   1
   621    624    625   1
   622    624    626   1
   623    624    627   1
   624    625    628   1
   625    625    629   1
   626    619    624   1
   627    630    631   1
   628    630    632   1
   629    630    633   1
   630    631    634   1
   631    631    635   1
   632    625    630   1
   633    636    637   1
   634    636    638   1
   635    636    639   1
   636    637    640   1
   637    637    641   1
   638    631    636   1
   639    642    643   1
   640    642    644   1
   641    642    645   1
   642    643    646   1
   643    643    647   1
   644    637    642   1
   645    648    649   1
   646    648    650   1
   647    648    651   1
   648    649    652   1
   649    649    653   1
   650    643    648   1
   651    654    655   1
   652    654    656   1
   653    654    657   1
   654    655    658   1
   655    655    659   1
   656    649    654   1
   657    660    661   1
   658    661    662   1
   659    660    663   1
   660    660    664   1
   661    661    665   1
   662    661    666   1
   663    655    660   1
   664    667    668   1
   665    668    669   1
   666    668    670   1
   667    668    671   1
   668    669    672   1
   669    669    673   1
   670    674    675   1
   671    674    676   1
   672    674    677   1
   673    675    678   1
   674    675    679   1
   675    669    674   1
   676    680    681   1
   677    680    682   1
   678    680    683   1
   679    681    684   1
   680    681    685   1
   681    675    680   1
   682    686    687   1
   683    686    688   1
   684    686    689   1
   685    687    690   1
   686    687    691   1
   687    681    686   1
   688    692    693   1
   689    692    694   1
   690    692    695   1
   691    693    696   1
   692    693    697   1
   693    687    692   1
   694    698    699   1
   695    698    700   1
   696    698    701   1
   697    699    702   1
   698    699    703   1
   699    693    698   1
   700    704    705   1
   701    704    706   1
   702    704    707   1
   703    705    708   1
   704    705    709   1
   705    699    704   1
   706    710    711   1
   707    710    712   1
   708    710    713   1
   709    711    714   1
   710    711    715   1
   711    705    710   1
   712    716    717   1
   713    716    718   1
   714    716    719   1
   715    717    720   1
   716    717    721   1
   717    711    716   1
   718    722    723   1
   719    722    724   1
   720    722    725   1
   721    723    726   1
   722    723    727   1
   723    717    722   1
   724    728    729   1
   725    728    730   1
   726    728    731   1
   727    729    732   1
   728    729    733   1
   729    723    728   1
   730    734    735   1
   731    734    736   1
   732    734    737   1
   733    735    738   1
   734    735    739   1
   735    729    734   1
   736    740    741   1
   737    740    742   1
   738    740    743   1
   739    741    744   1
   740    741    745   1
   741    735    740   1
   742    746    747   1
   743    746    748   1
   744    746    749   1
   745    747    750   1
   746    747    751   1
   747    741    746   1
   748    752    753   1
   749    752    754   1
   750    752    755   1
   751    753    756   1
   752    753    757   1
   753    747    752   1
   754    758    759   1
   755    758    760   1
   756    758    761   1
   757    759    762   1
   758    759    763   1
   759    753    758   1
   760    764    765   1
   761    764    766   1
   762    764    767   1
   763    765    768   1
   764    765    769   1
   765    759    764   1
   766    770    771   1
   767    770    772   1
   768    770    773   1
   769    771    774   1
   770    771    775   1
   771    765    770   1
   772    776    777   1
   773    776    778   1
   774    776    779   1
   775    777    780   1
   776    777    781   1
   777    771    776   1
   778    782    783   1
   779    782    784   1
   780    782    785   1
   781    783    786   1
   782    783    787   1
   783    777    782   1
   784    788    789   1
   785    788    790   1
   786    788    791   1
   787    789    792   1
   788    789    793   1
   789    783    788   1
   790    794    795   1
   791    794    796   1
   792    794    797   1
   793    795    798   1
   794    795    799   1
   795    789    794   1
   796    800    801   1
   797    800    802   1
   798    800    803   1
   799    801    804   1
   800    801    805   1
   801    795    800   1
   802    806    807   1
   803    806    808   1
   804    806    809   1
   805    807    810   1
   806    807    811   1
   807    801    806   1
   808    812    813   1
   809    812    814   1
   810    812    815   1
   811    813    816   1
   812    813    817   1
   813    807    812   1
   814    818    819   1
   815    818    820   1
   816    818    821   1
   817    819    822   1
   818    819    823   1
   819    813    818   1
   820    824    825   1
   821    824    826   1
   822    824    827   1
   823    825    828   1
   824    825    829   1
   825    819    824   1
   826    830    831   1
   827    830    832   1
   828    830    833   1
   829    831    834   1
   830    831    835   1
   831    825    830   1
   832    836    837   1
   833    836    838   1
   834    836    839   1
   835    837    840   1
   836    837    841   1
   837    831    836   1
   838    842    843   1
   839    842    844   1
   840    842    845   1
   841    843    846   1
   842    843    847   1
   843    837    842   1
   844    848    849   1
   845    848    850   1
   846    848    851   1
   847    849    852   1
   848    849    853   1
   849    843    848   1
   850    854    855   1
   851    854    856   1
   852    854    857   1
   853    855    858   1
   854    855    859   1
   855    849    854   1
   856    860    861   1
   857    860    862   1
   858    860    863   1
   859    861    864   1
   860    861    865   1
   861    855    860   1
   862    866    867   1
   863    866    868   1
   864    866    869   1
   865    867    870   1
   866    867    871   1
   867    861    866   1
   868    872    873   1
   869    872    874   1
   870    872    875   1
   871    873    876   1
   872    873    877   1
   873    867    872   1
   874    878    879   1
   875    878    880   1
   876    878    881   1
   877    879    882   1
   878    879    883   1
   879    873    878   1
   880    884    885   1
   881    884    886   1
   882    884    887   1
   883    885    888   1
   884    885    889   1
   885    879    884   1
   886    890    891   1
   887    890    892   1
   888    890    893   1
   889    891    894   1
   890    891    895   1
   891    885    890   1
   892    896    897   1
   893    896    898   1
   894    896    899   1
   895    897    900   1
   896    897    901   1
   897    891    896   1
   898    902    903   1
   899    902    904   1
   900    902    905   1
   901    903    906   1
   902    903    907   1
   903    897    902   1
   904    908    909   1
   905    908    910   1
   906    908    911   1
   907    909    912   1
   908    909    913   1
   909    903    908   1
   910    914    915   1
   911    914    916   1
   912    914    917   1
   913    915    918   1
   914    915    919   1
   915    909    914   1
   916    920    921   1
   917    920    922   1
   918    920    923   1
   919    921    924   1
   920    921    925   1
   921    915    920   1
   922    926    927   1
   923    926    928   1
   924    926    929   1
   925    927    930   1
   926    927    931   1
   927    921    926   1
   928    932    933   1
   929    932    934   1
   930    932    935   1
   931    933    936   1
   932    933    937   1
   933    927    932   1
   934    938    939   1
   935    938    940   1
   936    938    941   1
   937    939    942   1
   938    939    943   1
   939    933    938   1
   940    944    945   1
   941    944    946   1
   942    944    947   1
   943    945    948   1
   944    945    949   1
   945    939    944   1
   946    950    951   1
   947    950    952   1
   948    950    953   1
   949    951    954   1
   950    951    955   1
   951    945    950   1
   952    956    957   1
   953    956    958   1
   954    956    959   1
   955    957    960   1
   956    957    961   1
   957    951    956   1
   958    962    963   1
   959    963    964   1
   960    962    965   1
   961    962    966   1
   962    963    967   1
   963    963    968   1
   964    957    962   1
   965    969    970   1
   966    970    971   1
   967    970    972   1
   968    970    973   1
   969    971    974   1
   970    971    975   1
   971    976    977   1
   972    976    978   1
   973    976    979   1
   974    977    980   1
   975    977    981   1
   976    971    976   1
   977    982    983   1
   978    982    984   1
   979    982    985   1
   980    983    986   1
   981    983    987   1
   982    977    982   1
   983    988    989   1
   984    988    990   1
   985    988    991   1
   986    989    992   1
   987    989    993   1
   988    983    988   1
   989    994    995   1
   990    994    996   1
   991    994    997   1
   992    995    998   1
   993    995    999   1
   994    989    994   1
   995   1000   1001   1
   996   1000   1002   1
   997   1000   1003   1
   998   1001   1004   1
   999   1001   1005   1
  1000    995   1000   1
  1001   1006   1007   1
  1002   1006   1008   1
  1003   1006   1009   1
  1004   1007   1010   1
  1005   1007   1011   1
  1006   1001   1006   1
  1007   1012   1013   1
  1008   1012   1014   1
  1009   1012   1015   1
  1010   1013   1016   1
  1011   1013   1017   1
  1012   1007   1012   1
  1013   1018   1019   1
  1014   1018   1020   1
  1015   1018   1021   1
  1016   1019   1022   1
  1017   1019   1023   1
  1018   1013   1018   1
  1019   1024   1025   1
  1020   1024   1026   1
  1021   1024   1027   1
  1022   1025   1028   1
  1023   1025   1029   1
  1024   1019   1024   1
  1025   1030   1031   1
  1026   1030   1032   1
  1027   1030   1033   1
  1028   1031   1034   1
  1029   1031   1035   1
  1030   1025   1030   1
  1031   1036   1037   1
  1032   1036   1038   1
  1033   1036   1039   1
  1034   1037   1040   1
  1035   1037   1041   1
  1036   1031   1036   1
  1037   1042   1043   1
  1038   1042   1044   1
  1039   1042   1045   1
  1040   1043   1046   1
  1041   1043   1047   1
  1042   1037   1042   1
  1043   1048   1049   1
  1044   1048   1050   1
  1045   1048   1051   1
  1046   1049   1052   1
  1047   1049   1053   1
  1048   1043   1048   1
  1049   1054   1055   1
  1050   1054   1056   1
  1051   1054   1057   1
  1052   1055   1058   1
  1053   1055   1059   1
  1054   1049   1054   1
  1055   1060   1061   1
  1056   1060   1062   1
  1057   1060   1063   1
  1058   1061   1064   1
  1059   1061   1065   1
  1060   1055   1060   1
  1061   1066   1067   1
  1062   1066   1068   1
  1063   1066   1069   1
  1064   1067   1070   1
  1065   1067   1071   1
  1066   1061   1066   1
  1067   1072   1073   1
  1068   1072   1074   1
  1069   1072   1075   1
  1070   1073   1076   1
  1071   1073   1077   1
  1072   1067   1072   1
  1073   1078   1079   1
  1074   1078   1080   1
  1075   1078   1081   1
  1076   1079   1082   1
  1077   1079   1083   1
  1078   1073   1078   1
  1079   1084   1085   1
  1080   1084   1086   1
  1081   1084   1087   1
  1082   1085   1088   1
  1083   1085   1089   1
  1084   1079   1084   1
  1085   1090   1091   1
  1086   1090   1092   1
  1087   1090   1093   1
  1088   1091   1094   1
  1089   1091   1095   1
  1090   1085   1090   1
  1091   1096   1097   1
  1092   1096   1098   1
  1093   1096   1099   1
  1094   1097   1100   1
  1095   1097   1101   1
  1096   1091   1096   1
  1097   1102   1103   1
  1098   1102   1104   1
  1099   1102   1105   1
  1100   1103   1106   1
  1101   1103   1107   1
  1102   1097   1102   1
  1103   1108   1109   1
  1104   1108   1110   1
  1105   1108   1111   1
  1106   1109   1112   1
  1107   1109   1113   1
  1108   1103   1108   1
  1109   1114   1115   1
  1110   1114   1116   1
  1111   1114   1117   1
  1112   1115   1118   1
  1113   1115   1119   1
  1114   1109   1114   1
  1115   1120   1121   1
  1116   1120   1122   1
  1117   1120   1123   1
  1118   1121   1124   1
  1119   1121   1125   1
  1120   1115   1120   1
  1121   1126   1127   1
  1122   1126   1128   1
  1123   1126   1129   1
  1124   1127   1130   1
  1125   1127   1131   1
  1126   1121   1126   1
  1127   1132   1133   1
  1128   1132   1134   1
  1129   1132   1135   1
  1130   1133   1136   1
  1131   1133   1137   1
  1132   1127   1132   1
  1133   1138   1139   1
  1134   1138   1140   1
  1135   1138   1141   1
  1136   1139   1142   1
  1137   1139   1143   1
  1138   1133   1138   1
  1139   1144   1145   1
  1140   1144   1146   1
  1141   1144   1147   1
  1142   1145   1148   1
  1143   1145   1149   1
  1144   1139   1144   1
  1145   1150   1151   1
  1146   1150   1152   1
  1147   1150   1153   1
  1148   1151   1154   1
  1149   1151   1155   1
  1150   1145   1150   1
  1151   1156   1157   1
  1152   1156   1158   1
  1153   1156   1159   1
  1154   1157   1160   1
  1155   1157   1161   1
  1156   1151   1156   1
  1157   1162   1163   1
  1158   1162   1164   1
  1159   1162   1165   1
  1160   1163   1166   1
  1161   1163   1167   1
  1162   1157   1162   1
  1163   1168   1169   1
  1164   1168   1170   1
  1165   1168   1171   1
  1166   1169   1172   1
  1167   1169   1173   1
  1168   1163   1168   1
  1169   1174   1175   1
  1170   1174   1176   1
  1171   1174   1177   1
  1172   1175   1178   1
  1173   1175   1179   1
  1174   1169   1174   1
  1175   1180   1181   1
  1176   1180   1182   1
  1177   1180   1183   1
  1178   1181   1184   1
  1179   1181   1185   1
  1180   1175   1180   1
  1181   1186   1187   1
  1182   1186   1188   1
  1183   1186   1189   1
  1184   1187   1190   1
  1185   1187   1191   1
  1186   1181   1186   1
  1187   1192   1193   1
  1188   1192   1194   1
  1189   1192   1195   1
  1190   1193   1196   1
  1191   1193   1197   1
  1192   1187   1192   1
  1193   1198   1199   1
  1194   1198   1200   1
  1195   1198   1201   1
  1196   1199   1202   1
  1197   1199   1203   1
  1198   1193   1198   1
  1199   1204   1205   1
  1200   1204   1206   1
  1201   1204   1207   1
  1202   1205   1208   1
  1203   1205   1209   1
  1204   1199   1204   1
  1205   1210   1211   1
  1206   1210   1212   1
  1207   1210   1213   1
  1208   1211   1214   1
  1209   1211   1215   1
  1210   1205   1210   1
  1211   1216   1217   1
  1212   1216   1218   1
  1213   1216   1219   1
  1214   1217   1220   1
  1215   1217   1221   1
  1216   1211   1216   1
  1217   1222   1223   1
  1218   1222   1224   1
  1219   1222   1225   1
  1220   1223   1226   1
  1221   1223   1227   1
  1222   1217   1222   1
  1223   1228   1229   1
  1224   1228   1230   1
  1225   1228   1231   1
  1226   1229   1232   1
  1227   1229   1233   1
  1228   1223   1228   1
  1229   1234   1235   1
  1230   1234   1236   1
  1231   1234   1237   1
  1232   1235   1238   1
  1233   1235   1239   1
  1234   1229   1234   1
  1235   1240   1241   1
  1236   1240   1242   1
  1237   1240   1243   1
  1238   1241   1244   1
  1239   1241   1245   1
  1240   1235   1240   1
  1241   1246   1247   1
  1242   1246   1248   1
  1243   1246   1249   1
  1244   1247   1250   1
  1245   1247   1251   1
  1246   1241   1246   1
  1247   1252   1253   1
  1248   1252   1254   1
  1249   1252   1255   1
  1250   1253   1256   1
  1251   1253   1257   1
  1252   1247   1252   1
  1253   1258   1259   1
  1254   1258   1260   1
  1255   1258   1261   1
  1256   1259   1262   1
  1257   1259   1263   1
  1258   1253   1258   1
  1259   1264   1265   1
  1260   1265   1266   1
  1261   1264   1267   1
  1262   1264   1268   1
  1263   1265   1269   1
  1264   1265   1270   1
  1265   1259   1264   1
  1266   1271   1272   1
  1267   1272   1273   1
  1268   1272   1274   1
  1269   1272   1275   1
  1270   1273   1276   1
  1271   1273   1277   1
  1272   1278   1279   1
  1273   1278   1280   1
  1274   1278   1281   1
  1275   1279   1282   1
  1276   1279   1283   1
  1277   1273   1278   1
  1278   1284   1285   1
  1279   1284   1286   1
  1280   1284   1287   1
  1281   1285   1288   1
  1282   1285   1289   1
  1283   1279   1284   1
  1284   1290   1291   1
  1285   1290   1292   1
  1286   1290   1293   1
  1287   1291   1294   1
  1288   1291   1295   1
  1289   1285   1290   1
  1290   1296   1297   1
  1291   1296   1298   1
  1292   1296   1299   1
  1293   1297   1300   1
  1294   1297   1301   1
  1295   1291   1296   1
  1296   1302   1303   1
  1297   1302   1304   1
  1298   1302   1305   1
  1299   1303   1306   1
  1300   1303   1307   1
  1301   1297   1302   1
  1302   1308   1309   1
  1303   1308   1310   1
  1304   1308   1311   1
  1305   1309   1312   1
  1306   1309   1313   1
  1307   1303   1308   1
  1308   1314   1315   1
  1309   1314   1316   1
  1310   1314   1317   1
  1311   1315   1318   1
  1312   1315   1319   1
  1313   1309   1314   1
  1314   1320   1321   1
  1315   1320   1322   1
  1316   1320   1323   1
  1317   1321   1324   1
  1318   1321   1325   1
  1319   1315   1320   1
  1320   1326   1327   1
  1321   1326   1328   1
  1322   1326   1329   1
  1323   1327   1330   1
  1324   1327   1331   1
  1325   1321   1326   1
  1326   1332   1333   1
  1327   1332   1334   1
  1328   1332   1335   1
  1329   1333   1336   1
  1330   1333   1337   1
  1331   1327   1332   1
  1332   1338   1339   1
  1333   1338   1340   1
  1334   1338   1341   1
  1335   1339   1342   1
  1336   1339   1343   1
  1337   1333   1338   1
  1338   1344   1345   1
  1339   1344   1346   1
  1340   1344   1347   1
  1341   1345   1348   1
  1342   1345   1349   1
  1343   1339   1344   1
  1344   1350   1351   1
  1345   1350   1352   1
  1346   1350   1353   1
  1347   1351   1354   1
  1348   1351   1355   1
  1349   1345   1350   1
  1350   1356   1357   1
  1351   1356   1358   1
  1352   1356   1359   1
  1353   1357   1360   1
  1354   1357   1361   1
  1355   1351   1356   1
  1356   1362   1363   1
  1357   1362   1364   1
  1358   1362   1365   1
  1359   1363   1366   1
  1360   1363   1367   1
  1361   1357   1362   1
  1362   1368   1369   1
  1363   1368   1370   1
  1364   1368   1371   1
  1365   1369   1372   1
  1366   1369   1373   1
  1367   1363   1368   1
  1368   1374   1375   1
  1369   1374   1376   1
  1370   1374   1377   1
  1371   1375   1378   1
  1372   1375   1379   1
  1373   1369   1374   1
  1374   1380   1381   1
  1375   1380   1382   1
  1376   1380   1383   1
  1377   1381   1384   1
  1378   1381   1385   1
  1379   1375   1380   1
  1380   1386   1387   1
  1381   1386   1388   1
  1382   1386   1389   1
  1383   1387   1390   1
  1384   1387   1391   1
  1385   1381   1386   1
  1386   1392   1393   1
  1387   1392   1394   1
  1388   1392   1395   1
  1389   1393   1396   1
  1390   1393   1397   1
  1391   1387   1392   1
  1392   1398   1399   1
  1393   1398   1400   1
  1394   1398   1401   1
  1395   1399   1402   1
  1396   1399   1403   1
  1397   1393   1398   1
  1398   1404   1405   1
  1399   1404   1406   1
  1400   1404   1407   1
  1401   1405   1408   1
  1402   1405   1409   1
  1403   1399   1404   1
  1404   1410   1411   1
  1405   1410   1412   1
  1406   1410   1413   1
  1407   1411   1414   1
  1408   1411   1415   1
  1409   1405   1410   1
  1410   1416   1417   1
  1411   1416   1418   1
  1412   1416   1419   1
  1413   1417   1420   1
  1414   1417   1421   1
  1415   1411   1416   1
  1416   1422   1423   1
  1417   1422   1424   1
  1418   1422   1425   1
  1419   1423   1426   1
  1420   1423   1427   1
  1421   1417   1422   1
  1422   1428   1429   1
  1423   1428   1430   1
  1424   1428   1431   1
  1425   1429   1432   1
  1426   1429   1433   1
  1427   1423   1428   1
  1428   1434   1435   1
  1429   1434   1436   1
  1430   1434   1437   1
  1431   1435   1438   1
  1432   1435   1439   1
  1433   1429   1434   1
  1434   1440   1441   1
  1435   1440   1442   1
  1436   1440   1443   1
  1437   1441   1444   1
  1438   1441   1445   1
  1439   1435   1440   1
  1440   1446   1447   1
  1441   1446   1448   1
  1442   1446   1449   1
  1443   1447   1450   1
  1444   1447   1451   1
  1445   1441   1446   1
  1446   1452   1453   1
  1447   1452   1454   1
  1448   1452   1455   1
  1449   1453   1456   1
  1450   1453   1457   1
  1451   1447   1452   1
  1452   1458   1459   1
  1453   1458   1460   1
  1454   1458   1461   1
  1455   1459   1462   1
  1456   1459   1463   1
  1457   1453   1458   1
  1458   1464   1465   1
  1459   1464   1466   1
  1460   1464   1467   1
  1461   1465   1468   1
  1462   1465   1469   1
  1463   1459   1464   1
  1464   1470   1471   1
  1465   1470   1472   1
  1466   1470   1473   1
  1467   1471   1474   1
  1468   1471   1475   1
  1469   1465   1470   1
  1470   1476   1477   1
  1471   1476   1478   1
  1472   1476   1479   1
  1473   1477   1480   1
  1474   1477   1481   1
  1475   1471   1476   1
  1476   1482   1483   1
  1477   1482   1484   1
  1478   1482   1485   1
  1479   1483   1486   1
  1480   1483   1487   1
  1481   1477   1482   1
  1482   1488   1489   1
  1483   1488   1490   1
  1484   1488   1491   1
  1485   1489   1492   1
  1486   1489   1493   1
  1487   1483   1488   1
  1488   1494   1495   1
  1489   1494   1496   1
  1490   1494   1497   1
  1491   1495   1498   1
  1492   1495   1499   1
  1493   1489   1494   1
  1494   1500   1501   1
  1495   1500   1502   1
  1496   1500   1503   1
  1497   1501   1504   1
  1498   1501   1505   1
  1499   1495   1500   1
  1500   1506   1507   1
  1501   1506   1508   1
  1502   1506   1509   1
  1503   1507   1510   1
  1504   1507   1511   1
  1505   1501   1506   1
  1506   1512   1513   1
  1507   1512   1514   1
  1508   1512   1515   1
  1509   1513   1516   1
  1510   1513   1517   1
  1511   1507   1512   1
  1512   1518   1519   1
  1513   1518   1520   1
  1514   1518   1521   1
  1515   1519   1522   1
  1516   1519   1523   1
  1517   1513   1518   1
  1518   1524   1525   1
  1519   1524   1526   1
  1520   1524   1527   1
  1521   1525   1528   1
  1522   1525   1529   1
  1523   1519   1524   1
  1524   1530   1531   1
  1525   1530   1532   1
  1526   1530   1533   1
  1527   1531   1534   1
  1528   1531   1535   1
  1529   1525   1530   1
  1530   1536   1537   1
  1531   1536   1538   1
  1532   1536   1539   1
  1533   1537   1540   1
  1534   1537   1541   1
  1535   1531   1536   1
  1536   1542   1543   1
  1537   1542   1544   1
  1538   1542   1545   1
  1539   1543   1546   1
  1540   1543   1547   1
  1541   1537   1542   1
  1542   1548   1549   1
  1543   1548   1550   1
  1544   1548   1551   1
  1545   1549   1552   1
  1546   1549   1553   1
  1547   1543   1548   1
  1548   1554   1555   1
  1549   1554   1556   1
  1550   1554   1557   1
  1551   1555   1558   1
  1552   1555   1559   1
  1553   1549   1554   1
  1554   1560   1561   1
  1555   1560   1562   1
  1556   1560   1563   1
  1557   1561   1564   1
  1558   1561   1565   1
  1559   1555   1560   1
  1560   1566   1567   1
  1561   1567   1568   1
  1562   1566   1569   1
  1563   1566   1570   1
  1564   1567   1571   1
  1565   1567   1572   1
  1566   1561   1566   1
  1567   1573   1574   1
  1568   1574   1575   1
  1569   1574   1576   1
  1570   1574   1577   1
  1571   1575   1578   1
  1572   1575   1579   1
  1573   1580   1581   1
  1574   1580   1582   1
  1575   1580   1583   1
  1576   1581   1584   1
  1577   1581   1585   1
  1578   1575   1580   1
  1579   1586   1587   1
  1580   1586   1588   1
  1581   1586   1589   1
  1582   1587   1590   1
  1583   1587   1591   1
  1584   1581   1586   1
  1585   1592   1593   1
  1586   1592   1594   1
  1587   1592   1595   1
  1588   1593   1596   1
  1589   1593   1597   1
  1590   1587   1592   1
  1591   1598   1599   1
  1592   1598   1600   1
  1593   1598   1601   1
  1594   1599   1602   1
  1595   1599   1603   1
  1596   1593   1598   1
  1597   1604   1605   1
  1598   1604   1606   1
  1599   1604   1607   1
  1600   1605   1608   1
  1601   1605   1609   1
  1602   1599   1604   1
  1603   1610   1611   1
  1604   1610   1612   1
  1605   1610   1613   1
  1606   1611   1614   1
  1607   1611   1615   1
  1608   1605   1610   1
  1609   1616   1617   1
  1610   1616   1618   1
  1611   1616   1619   1
  1612   1617   1620   1
  1613   1617   1621   1
  1614   1611   1616   1
  1615   1622   1623   1
  1616   1622   1624   1
  1617   1622   1625   1
  1618   1623   1626   1
  1619   1623   1627   1
  1620   1617   1622   1
  1621   1628   1629   1
  1622   1628   1630   1
  1623   1628   1631   1
  1624   1629   1632   1
  1625   1629   1633   1
  1626   1623   1628   1
  1627   1634   1635   1
  1628   1634   1636   1
  1629   1634   1637   1
  1630   1635   1638   1
  1631   1635   1639   1
  1632   1629   1634   1
  1633   1640   1641   1
  1634   1640   1642   1
  1635   1640   1643   1
  1636   1641   1644   1
  1637   1641   1645   1
  1638   1635   1640   1
  1639   1646   1647   1
  1640   1646   1648   1
  1641   1646   1649   1
  1642   1647   1650   1
  1643   1647   1651   1
  1644   1641   1646   1
  1645   1652   1653   1
  1646   1652   1654   1
  1647   1652   1655   1
  1648   1653   1656   1
  1649   1653   1657   1
  1650   1647   1652   1
  1651   1658   1659   1
  1652   1658   1660   1
  1653   1658   1661   1
  1654   1659   1662   1
  1655   1659   1663   1
  1656   1653   1658   1
  1657   1664   1665   1
  1658   1664   1666   1
  1659   1664   1667   1
  1660   1665   1668   1
  1661   1665   1669   1
  1662   1659   1664   1
  1663   1670   1671   1
  1664   1670   1672   1
  1665   1670   1673   1
  1666   1671   1674   1
  1667   1671   1675   1
  1668   1665   1670   1
  1669   1676   1677   1
  1670   1676   1678   1
  1671   1676   1679   1
  1672   1677   1680   1
  1673   1677   1681   1
  1674   1671   1676   1
  1675   1682   1683   1
  1676   1682   1684   1
  1677   1682   1685   1
  1678   1683   1686   1
  1679   1683   1687   1
  1680   1677   1682   1
  1681   1688   1689   1
  1682   1688   1690   1
  1683   1688   1691   1
  1684   1689   1692   1
  1685   1689   1693   1
  1686   1683   1688   1
  1687   1694   1695   1
  1688   1694   1696   1
  1689   1694   1697   1
  1690   1695   1698   1
  1691   1695   1699   1
  1692   1689   1694   1
  1693   1700   1701   1
  1694   1700   1702   1
  1695   1700   1703   1
  1696   1701   1704   1
  1697   1701   1705   1
  1698   1695   1700   1
  1699   1706   1707   1
  1700   1706   1708   1
  1701   1706   1709   1
  1702   1707   1710   1
  1703   1707   1711   1
  1704   1701   1706   1
  1705   1712   1713   1
  1706   1712   1714   1
  1707   1712   1715   1
  1708   1713   1716   1
  1709   1713   1717   1
  1710   1707   1712   1
  1711   1718   1719   1
  1712   1718   1720   1
  1713   1718   1721   1
  1714   1719   1722   1
  1715   1719   1723   1
  1716   1713   1718   1
  1717   1724   1725   1
  1718   1724   1726   1
  1719   1724   1727   1
  1720   1725   1728   1
  1721   1725   1729   1
  1722   1719   1724   1
  1723   1730   1731   1
  1724   1730   1732   1
  1725   1730   1733   1
  1726   1731   1734   1
  1727   1731   1735   1
  1728   1725   1730   1
  1729   1736   1737   1
  1730   1736   1738   1
  1731   1736   1739   1
  1732   1737   1740   1
  1733   1737   1741   1
  1734   1731   1736   1
  1735   1742   1743   1
  1736   1742   1744   1
  1737   1742   1745   1
  1738   1743   1746   1
  1739   1743   1747   1
  1740   1737   1742   1
  1741   1748   1749   1
  1742   1748   1750   1
  1743   1748   1751   1
  1744   1749   1752   1
  1745   1749   1753   1
  1746   1743   1748   1
  1747   1754   1755   1
  1748   1754   1756   1
  1749   1754   1757   1
  1750   1755   1758   1
  1751   1755   1759   1
  1752   1749   1754   1
  1753   1760   1761   1
  1754   1760   1762   1
  1755   1760   1763   1
  1756   1761   1764   1
  1757   1761   1765   1
  1758   1755   1760   1
  1759   1766   1767   1
  1760   1766   1768   1
  1761   1766   1769   1
  1762   1767   1770   1
  1763   1767   1771   1
  1764   1761   1766   1
  1765   1772   1773   1
  1766   1772   1774   1
  1767   1772   1775   1
  1768   1773   1776   1
  1769   1773   1777   1
  1770   1767   1772   1
  1771   1778   1779   1
  1772   1778   1780   1
  1773   1778   1781   1
  1774   1779   1782   1
  1775   1779   1783   1
  1776   1773   1778   1
  1777   1784   1785   1
  1778   1784   1786   1
  1779   1784   1787   1
  1780   1785   1788   1
  1781   1785   1789   1
  1782   1779   1784   1
  1783   1790   1791   1
  1784   1790   1792   1
  1785   1790   1793   1
  1786   1791   1794   1
  1787   1791   1795   1
  1788   1785   1790   1
  1789   1796   1797   1
  1790   1796   1798   1
  1791   1796   1799   1
  1792   1797   1800   1
  1793   1797   1801   1
  1794   1791   1796   1
  1795   1802   1803   1
  1796   1802   1804   1
  1797   1802   1805   1
  1798   1803   1806   1
  1799   1803   1807   1
  1800   1797   1802   1
  1801   1808   1809   1
  1802   1808   1810   1
  1803   1808   1811   1
  1804   1809   1812   1
  1805   1809   1813   1
  1806   1803   1808   1
  1807   1814   1815   1
  1808   1814   1816   1
  1809   1814   1817   1
  1810   1815   1818   1
  1811   1815   1819   1
  1812   1809   1814   1
  1813   1820   1821   1
  1814   1820   1822   1
  1815   1820   1823   1
  1816   1821   1824   1
  1817   1821   1825   1
  1818   1815   1820   1
  1819   1826   1827   1
  1820   1826   1828   1
  1821   1826   1829   1
  1822   1827   1830   1
  1823   1827   1831   1
  1824   1821   1826   1
  1825   1832   1833   1
  1826   1832   1834   1
  1827   1832   1835   1
  1828   1833   1836   1
  1829   1833   1837   1
  1830   1827   1832   1
  1831   1838   1839   1
  1832   1838   1840   1
  1833   1838   1841   1
  1834   1839   1842   1
  1835   1839   1843   1
  1836   1833   1838   1
  1837   1844   1845   1
  1838   1844   1846   1
  1839   1844   1847   1
  1840   1845   1848   1
  1841   1845   1849   1
  1842   1839   1844   1
  1843   1850   1851   1
  1844   1850   1852   1
  1845   1850   1853   1
  1846   1851   1854   1
  1847   1851   1855   1
  1848   1845   1850   1
  1849   1856   1857   1
  1850   1856   1858   1
  1851   1856   1859   1
  1852   1857   1860   1
  1853   1857   1861   1
  1854   1851   1856   1
  1855   1862   1863   1
  1856   1862   1864   1
  1857   1862   1865   1
  1858   1863   1866   1
  1859   1863   1867   1
  1860   1857   1862   1
  1861   1868   1869   1
  1862   1869   1870   1
  1863   1868   1871   1
  1864   1868   1872   1
  1865   1869   1873   1
  1866   1869   1874   1
  1867   1863   1868   1
  1868   1875   1876   1
  1869   1876   1877   1
  1870   1876   1878   1
  1871   1876   1879   1
  1872   1877   1880   1
  1873   1877   1881   1
  1874   1882   1883   1
  1875   1882   1884   1
  1876   1882   1885   1
  1877   1883   1886   1
  1878   1883   1887   1
  1879   1877   1882   1
  1880   1888   1889   1
  1881   1888   1890   1
  1882   1888   1891   1
  1883   1889   1892   1
  1884   1889   1893   1
  1885   1883   1888   1
  1886   1894   1895   1
  1887   1894   1896   1
  1888   1894   1897   1
  1889   1895   1898   1
  1890   1895   1899   1
  1891   1889   1894   1
  1892   1900   1901   1
  1893   1900   1902   1
  1894   1900   1903   1
  1895   1901   1904   1
  1896   1901   1905   1
  1897   1895   1900   1
  1898   1906   1907   1
  1899   1906   1908   1
  1900   1906   1909   1
  1901   1907   1910   1
  1902   1907   1911   1
  1903   1901   1906   1
  1904   1912   1913   1
  1905   1912   1914   1
  1906   1912   1915   1
  1907   1913   1916   1
  1908   1913   1917   1
  1909   1907   1912   1
  1910   1918   1919   1
  1911   1918   1920   1
  1912   1918   1921   1
  1913   1919   1922   1
  1914   1919   1923   1
  1915   1913   1918   1
  1916   1924   1925   1
  1917   1924   1926   1
  1918   1924   1927   1
  1919   1925   1928   1
  1920   1925   1929   1
  1921   1919   1924   1
  1922   1930   1931   1
  1923   1930   1932   1
  1924   1930   1933   1
  1925   1931   1934   1
  1926   1931   1935   1
  1927   1925   1930   1
  1928   1936   1937   1
  1929   1936   1938   1
  1930   1936   1939   1
  1931   1937   1940   1
  1932   1937   1941   1
  1933   1931   1936   1
  1934   1942   1943   1
  1935   1942   1944   1
  1936   1942   1945   1
  1937   1943   1946   1
  1938   1943   1947   1
  1939   1937   1942   1
  1940   1948   1949   1
  1941   1948   1950   1
  1942   1948   1951   1
  1943   1949   1952   1
  1944   1949   1953   1
  1945   1943   1948   1
  1946   1954   1955   1
  1947   1954   1956   1
  1948   1954   1957   1
  1949   1955   1958   1
  1950   1955   1959   1
  1951   1949   1954   1
  1952   1960   1961   1
  1953   1960   1962   1
  1954   1960   1963   1
  1955   1961   1964   1
  1956   1961   1965   1
  1957   1955   1960   1
  1958   1966   1967   1
  1959   1966   1968   1
  1960   1966   1969   1
  1961   1967   1970   1
  1962   1967   1971   1
  1963   1961   1966   1
  1964   1972   1973   1
  1965   1972   1974   1
  1966   1972   1975   1
  1967   1973   1976   1
  1968   1973   1977   1
  1969   1967   1972   1
  1970   1978   1979   1
  1971   1978   1980   1
  1972   1978   1981   1
  1973   1979   1982   1
  1974   1979   1983   1
  1975   1973   1978   1
  1976   1984   1985   1
  1977   1984   1986   1
  1978   1984   1987   1
  1979   1985   1988   1
  1980   1985   1989   1
  1981   1979   1984   1
  1982   1990   1991   1
  1983   1990   1992   1
  1984   1990   1993   1
  1985   1991   1994   1
  1986   1991   1995   1
  1987   1985   1990   1
  1988   1996   1997   1
  1989   1996   1998   1
  1990   1996   1999   1
  1991   1997   2000   1
  1992   1997   2001   1
  1993   1991   1996   1
  1994   2002   2003   1
  1995   2002   2004   1
  1996   2002   2005   1
  1997   2003   2006   1
  1998   2003   2007   1
  1999   1997   2002   1
  2000   2008   2009   1
  2001   2008   2010   1
  2002   2008   2011   1
  2003   2009   2012   1
  2004   2009   2013   1
  2005   2003   2008   1
  2006   2014   2015   1
  2007   2014   2016   1
  2008   2014   2017   1
  2009   2015   2018   1
  2010   2015   2019   1
  2011   2009   2014   1
  2012   2020   2021   1
  2013   2020   2022   1
  2014   2020   2023   1
  2015   2021   2024   1
  2016   2021   2025   1
  2017   2015   2020   1
  2018   2026   2027   1
  2019   2026   2028   1
  2020   2026   2029   1
  2021   2027   2030   1
  2022   2027   2031   1
  2023   2021   2026   1
  2024   2032   2033   1
  2025   2032   2034   1
  2026   2032   2035   1
  2027   2033   2036   1
  2028   2033   2037   1
  2029   2027   2032   1
  2030   2038   2039   1
  2031   2038   2040   1
  2032   2038   2041   1
  2033   2039   2042   1
  2034   2039   2043   1
  2035   2033   2038   1
  2036   2044   2045   1
  2037   2044   2046   1
  2038   2044   2047   1
  2039   2045   2048   1
  2040   2045   2049   1
  2041   2039   2044   1
  2042   2050   2051   1
  2043   2050   2052   1
  2044   2050   2053   1
  2045   2051   2054   1
  2046   2051   2055   1
  2047   2045   2050   1
  2048   2056   2057   1
  2049   2056   2058   1
  2050   2056   2059   1
  2051   2057   2060   1
  2052   2057   2061   1
  2053   2051   2056   1
  2054   2062   2063   1
  2055   2062   2064   1
  2056   2062   2065   1
  2057   2063   2066   1
  2058   2063   2067   1
  2059   2057   2062   1
  2060   2068   2069   1
  2061   2068   2070   1
  2062   2068   2071   1
  2063   2069   2072   1
  2064   2069   2073   1
  2065   2063   2068   1
  2066   2074   2075   1
  2067   2074   2076   1
  2068   2074   2077   1
  2069   2075   2078   1
  2070   2075   2079   1
  2071   2069   2074   1
  2072   2080   2081   1
  2073   2080   2082   1
  2074   2080   2083   1
  2075   2081   2084   1
  2076   2081   2085   1
  2077   2075   2080   1
  2078   2086   2087   1
  2079   2086   2088   1
  2080   2086   2089   1
  2081   2087   2090   1
  2082   2087   2091   1
  2083   2081   2086   1
  2084   2092   2093   1
  2085   2092   2094   1
  2086   2092   2095   1
  2087   2093   2096   1
  2088   2093   2097   1
  2089   2087   2092   1
  2090   2098   2099   1
  2091   2098   2100   1
  2092   2098   2101   1
  2093   2099   2102   1
  2094   2099   2103   1
  2095   2093   2098   1
  2096   2104   2105   1
  2097   2104   2106   1
  2098   2104   2107   1
  2099   2105   2108   1
  2100   2105   2109   1
  2101   2099   2104   1
  2102   2110   2111   1
  2103   2110   2112   1
  2104   2110   2113   1
  2105   2111   2114   1
  2106   2111   2115   1
  2107   2105   2110   1
  2108   2116   2117   1
  2109   2116   2118   1
  2110   2116   2119   1
  2111   2117   2120   1
  2112   2117   2121   1
  2113   2111   2116   1
  2114   2122   2123   1
  2115   2122   2124   1
  2116   2122   2125   1
  2117   2123   2126   1
  2118   2123   2127   1
  2119   2117   2122   1
  2120   2128   2129   1
  2121   2128   2130   1
  2122   2128   2131   1
  2123   2129   2132   1
  2124   2129   2133   1
  2125   2123   2128   1
  2126   2134   2135   1
  2127   2134   2136   1
  2128   2134   2137   1
  2129   2135   2138   1
  2130   2135   2139   1
  2131   2129   2134   1
  2132   2140   2141   1
  2133   2140   2142   1
  2134   2140   2143   1
  2135   2141   2144   1
  2136   2141   2145   1
  2137   2135   2140   1
  2138   2146   2147   1
  2139   2146   2148   1
  2140   2146   2149   1
  2141   2147   2150   1
  2142   2147   2151   1
  2143   2141   2146   1
  2144   2152   2153   1
  2145   2152   2154   1
  2146   2152   2155   1
  2147   2153   2156   1
  2148   2153   2157   1
  2149   2147   2152   1
  2150   2158   2159   1
  2151   2158   2160   1
  2152   2158   2161   1
  2153   2159   2162   1
  2154   2159   2163   1
  2155   2153   2158   1
  2156   2164   2165   1
  2157   2164   2166   1
  2158   2164   2167   1
  2159   2165   2168   1
  2160   2165   2169   1
  2161   2159   2164   1
  2162   2170   2171   1
  2163   2170   2172   1
  2164   2170   2173   1
  2165   2171   2174   1
  2166   2171   2175   1
  2167   2165   2170   1
  2168   2176   2177   1
  2169   2176   2178   1
  2170   2176   2179   1
  2171   2177   2180   1
  2172   2177   2181   1
  2173   2171   2176   1
  2174   2182   2183   1
  2175   2182   2184   1
  2176   2182   2185   1
  2177   2183   2186   1
  2178   2183   2187   1
  2179   2177   2182   1
  2180   2188   2189   1
  2181   2188   2190   1
  2182   2188   2191   1
  2183   2189   2192   1
  2184   2189   2193   1
  2185   2183   2188   1
  2186   2194   2195   1
  2187   2194   2196   1
  2188   2194   2197   1
  2189   2195   2198   1
  2190   2195   2199   1
  2191   2189   2194   1
  2192   2200   2201   1
  2193   2200   2202   1
  2194   2200   2203   1
  2195   2201   2204   1
  2196   2201   2205   1
  2197   2195   2200   1
  2198   2206   2207   1
  2199   2206   2208   1
  2200   2206   2209   1
  2201   2207   2210   1
  2202   2207   2211   1
  2203   2201   2206   1
  2204   2212   2213   1
  2205   2212   2214   1
  2206   2212   2215   1
  2207   2213   2216   1
  2208   2213   2217   1
  2209   2207   2212   1
  2210   2218   2219   1
  2211   2218   2220   1
  2212   2218   2221   1
  2213   2219   2222   1
  2214   2219   2223   1
  2215   2213   2218   1
  2216   2224   2225   1
  2217   2224   2226   1
  2218   2224   2227   1
  2219   2225   2228   1
  2220   2225   2229   1
  2221   2219   2224   1
  2222   2230   2231   1
  2223   2231   2232   1
  2224   2230   2233   1
  2225   2230   2234   1
  2226   2231   2235   1
  2227   2231   2236   1
  2228   2225   2230   1
  2229   2237   2238   1
  2230   2238   2239   1
  2231   2238   2240   1
  2232   2238   2241   1
  2233   2239   2242   1
  2234   2239   2243   1
  2235   2244   2245   1
  2236   2244   2246   1
  2237   2244   2247   1
  2238   2245   2248   1
  2239   2245   2249   1
  2240   2239   2244   1
  2241   2250   2251   1
  2242   2250   2252   1
  2243   2250   2253   1
  2244   2251   2254   1
  2245   2251   2255   1
  2246   2245   2250   1
  2247   2256   2257   1
  2248   2256   2258   1
  2249   2256   2259   1
  2250   2257   2260   1
  2251   2257   2261   1
  2252   2251   2256   1
  2253   2262   2263   1
  2254   2262   2264   1
  2255   2262   2265   1
  2256   2263   2266   1
  2257   2263   2267   1
  2258   2257   2262   1
  2259   2268   2269   1
  2260   2268   2270   1
  2261   2268   2271   1
  2262   2269   2272   1
  2263   2269   2273   1
  2264   2263   2268   1
  2265   2274   2275   1
  2266   2274   2276   1
  2267   2274   2277   1
  2268   2275   2278   1
  2269   2275   2279   1
  2270   2269   2274   1
  2271   2280   2281   1
  2272   2280   2282   1
  2273   2280   2283   1
  2274   2281   2284   1
  2275   2281   2285   1
  2276   2275   2280   1
  2277   2286   2287   1
  2278   2286   2288   1
  2279   2286   2289   1
  2280   2287   2290   1
  2281   2287   2291   1
  2282   2281   2286   1
  2283   2292   2293   1
  2284   2292   2294   1
  2285   2292   2295   1
  2286   2293   2296   1
  2287   2293   2297   1
  2288   2287   2292   1
  2289   2298   2299   1
  2290   2298   2300   1
  2291   2298   2301   1
  2292   2299   2302   1
  2293   2299   2303   1
  2294   2293   2298   1
  2295   2304   2305   1
  2296   2304   2306   1
  2297   2304   2307   1
  2298   2305   2308   1
  2299   2305   2309   1
  2300   2299   2304   1
  2301   2310   2311   1
  2302   2310   2312   1
  2303   2310   2313   1
  2304   2311   2314   1
  2305   2311   2315   1
  2306   2305   2310   1
  2307   2316   2317   1
  2308   2316   2318   1
  2309   2316   2319   1
  2310   2317   2320   1
  2311   2317   2321   1
  2312   2311   2316   1
  2313   2322   2323   1
  2314   2322   2324   1
  2315   2322   2325   1
  2316   2323   2326   1
  2317   2323   2327   1
  2318   2317   2322   1
  2319   2328   2329   1
  2320   2328   2330   1
  2321   2328   2331   1
  2322   2329   2332   1
  2323   2329   2333   1
  2324   2323   2328   1
  2325   2334   2335   1
  2326   2334   2336   1
  2327   2334   2337   1
  2328   2335   2338   1
  2329   2335   2339   1
  2330   2329   2334   1
  2331   2340   2341   1
  2332   2340   2342   1
  2333   2340   2343   1
  2334   2341   2344   1
  2335   2341   2345   1
  2336   2335   2340   1
  2337   2346   2347   1
  2338   2346   2348   1
  2339   2346   2349   1
  2340   2347   2350   1
  2341   2347   2351   1
  2342   2341   2346   1
  2343   2352   2353   1
  2344   2352   2354   1
  2345   2352   2355   1
  2346   2353   2356   1
  2347   2353   2357   1
  2348   2347   2352   1
  2349   2358   2359   1
  2350   2358   2360   1
  2351   2358   2361   1
  2352   2359   2362   1
  2353   2359   2363   1
  2354   2353   2358   1
  2355   2364   2365   1
  2356   2364   2366   1
  2357   2364   2367   1
  2358   2365   2368   1
  2359   2365   2369   1
  2360   2359   2364   1
  2361   2370   2371   1
  2362   2370   2372   1
  2363   2370   2373   1
  2364   2371   2374   1
  2365   2371   2375   1
  2366   2365   2370   1
  2367   2376   2377   1
  2368   2376   2378   1
  2369   2376   2379   1
  2370   2377   2380   1
  2371   2377   2381   1
  2372   2371   2376   1
  2373   2382   2383   1
  2374   2382   2384   1
  2375   2382   2385   1
  2376   2383   2386   1
  2377   2383   2387   1
  2378   2377   2382   1
  2379   2388   2389   1
  2380   2388   2390   1
  2381   2388   2391   1
  2382   2389   2392   1
  2383   2389   2393   1
  2384   2383   2388   1
  2385   2394   2395   1
  2386   2394   2396   1
  2387   2394   2397   1
  2388   2395   2398   1
  2389   2395   2399   1
  2390   2389   2394   1
  2391   2400   2401   1
  2392   2400   2402   1
  2393   2400   2403   1
  2394   2401   2404   1
  2395   2401   2405   1
  2396   2395   2400   1
  2397   2406   2407   1
  2398   2406   2408   1
  2399   2406   2409   1
  2400   2407   2410   1
  2401   2407   2411   1
  2402   2401   2406   1
  2403   2412   2413   1
  2404   2412   2414   1
  2405   2412   2415   1
  2406   2413   2416   1
  2407   2413   2417   1
  2408   2407   2412   1
  2409   2418   2419   1
  2410   2418   2420   1
  2411   2418   2421   1
  2412   2419   2422   1
  2413   2419   2423   1
  2414   2413   2418   1
  2415   2424   2425   1
  2416   2424   2426   1
  2417   2424   2427   1
  2418   2425   2428   1
  2419   2425   2429   1
  2420   2419   2424   1
  2421   2430   2431   1
  2422   2430   2432   1
  2423   2430   2433   1
  2424   2431   2434   1
  2425   2431   2435   1
  2426   2425   2430   1
  2427   2436   2437   1
  2428   2436   2438   1
  2429   2436   2439   1
  2430   2437   2440   1
  2431   2437   2441   1
  2432   2431   2436   1
  2433   2442   2443   1
  2434   2442   2444   1
  2435   2442   2445   1
  2436   2443   2446   1
  2437   2443   2447   1
  2438   2437   2442   1
  2439   2448   2449   1
  2440   2448   2450   1
  2441   2448   2451   1
  2442   2449   2452   1
  2443   2449   2453   1
  2444   2443   2448   1
  2445   2454   2455   1
  2446   2454   2456   1
  2447   2454   2457   1
  2448   2455   2458   1
  2449   2455   2459   1
  2450   2449   2454   1
  2451   2460   2461   1
  2452   2460   2462   1
  2453   2460   2463   1
  2454   2461   2464   1
  2455   2461   2465   1
  2456   2455   2460   1
  2457   2466   2467   1
  2458   2466   2468   1
  2459   2466   2469   1
  2460   2467   2470   1
  2461   2467   2471   1
  2462   2461   2466   1
  2463   2472   2473   1
  2464   2472   2474   1
  2465   2472   2475   1
  2466   2473   2476   1
  2467   2473   2477   1
  2468   2467   2472   1
  2469   2478   2479   1
  2470   2478   2480   1
  2471   2478   2481   1
  2472   2479   2482   1
  2473   2479   2483   1
  2474   2473   2478   1
  2475   2484   2485   1
  2476   2484   2486   1
  2477   2484   2487   1
  2478   2485   2488   1
  2479   2485   2489   1
  2480   2479   2484   1
  2481   2490   2491   1
  2482   2490   2492   1
  2483   2490   2493   1
  2484   2491   2494   1
  2485   2491   2495   1
  2486   2485   2490   1
  2487   2496   2497   1
  2488   2496   2498   1
  2489   2496   2499   1
  2490   2497   2500   1
  2491   2497   2501   1
  2492   2491   2496   1
  2493   2502   2503   1
  2494   2502   2504   1
  2495   2502   2505   1
  2496   2503   2506   1
  2497   2503   2507   1
  2498   2497   2502   1
  2499   2508   2509   1
  2500   2508   2510   1
  2501   2508   2511   1
  2502   2509   2512   1
  2503   2509   2513   1
  2504   2503   2508   1
  2505   2514   2515   1
  2506   2514   2516   1
  2507   2514   2517   1
  2508   2515   2518   1
  2509   2515   2519   1
  2510   2509   2514   1
  2511   2520   2521   1
  2512   2520   2522   1
  2513   2520   2523   1
  2514   2521   2524   1
  2515   2521   2525   1
  2516   2515   2520   1
  2517   2526   2527   1
  2518   2526   2528   1
  2519   2526   2529   1
  2520   2527   2530   1
  2521   2527   2531   1
  2522   2521   2526   1
  2523   2532   2533   1
  2524   2532   2534   1
  2525   2532   2535   1
  2526   2533   2536   1
  2527   2533   2537   1
  2528   2527   2532   1
  2529   2538   2539   1
  2530   2538   2540   1
  2531   2538   2541   1
  2532   2539   2542   1
  2533   2539   2543   1
  2534   2533   2538   1
  2535   2544   2545   1
  2536   2544   2546   1
  2537   2544   2547   1
  2538   2545   2548   1
  2539   2545   2549   1
  2540   2539   2544   1
  2541   2550   2551   1
  2542   2550   2552   1
  2543   2550   2553   1
  2544   2551   2554   1
  2545   2551   2555   1
  2546   2545   2550   1
  2547   2556   2557   1
  2548   2556   2558   1
  2549   2556   2559   1
  2550   2557   2560   1
  2551   2557   2561   1
  2552   2551   2556   1
  2553   2562   2563   1
  2554   2562   2564   1
  2555   2562   2565   1
  2556   2563   2566   1
  2557   2563   2567   1
  2558   2557   2562   1
  2559   2568   2569   1
  2560   2568   2570   1
  2561   2568   2571   1
  2562   2569   2572   1
  2563   2569   2573   1
  2564   2563   2568   1
  2565   2574   2575   1
  2566   2574   2576   1
  2567   2574   2577   1
  2568   2575   2578   1
  2569   2575   2579   1
  2570   2569   2574   1
  2571   2580   2581   1
  2572   2580   2582   1
  2573   2580   2583   1
  2574   2581   2584   1
  2575   2581   2585   1
  2576   2575   2580   1
  2577   2586   2587   1
  2578   2586   2588   1
  2579   2586   2589   1
  2580   2587   2590   1
  2581   2587   2591   1
  2582   2581   2586   1
  2583   2592   2593   1
  2584   2593   2594   1
  2585   2592   2595   1
  2586   2592   2596   1
  2587   2593   2597   1
  2588   2593   2598   1
  2589   2587   2592   1
  2590   2599   2600   1
  2591   2600   2601   1
  2592   2600   2602   1
  2593   2600   2603   1
  2594   2601   2604   1
  2595   2601   2605   1
  2596   2606   2607   1
  2597   2606   2608   1
  2598   2606   2609   1
  2599   2607   2610   1
  2600   2607   2611   1
  2601   2601   2606   1
  2602   2612   2613   1
  2603   2612   2614   1
  2604   2612   2615   1
  2605   2613   2616   1
  2606   2613   2617   1
  2607   2607   2612   1
  2608   2618   2619   1
  2609   2618   2620   1
  2610   2618   2621   1
  2611   2619   2622   1
  2612   2619   2623   1
  2613   2613   2618   1
  2614   2624   2625   1
  2615   2624   2626   1
  2616   2624   2627   1
  2617   2625   2628   1
  2618   2625   2629   1
  2619   2619   2624   1
  2620   2630   2631   1
  2621   2630   2632   1
  2622   2630   2633   1
  2623   2631   2634   1
  2624   2631   2635   1
  2625   2625   2630   1
  2626   2636   2637   1
  2627   2636   2638   1
  2628   2636   2639   1
  2629   2637   2640   1
  2630   2637   2641   1
  2631   2631   2636   1
  2632   2642   2643   1
  2633   2642   2644   1
  2634   2642   2645   1
  2635   2643   2646   1
  2636   2643   2647   1
  2637   2637   2642   1
  2638   2648   2649   1
  2639   2648   2650   1
  2640   2648   2651   1
  2641   2649   2652   1
  2642   2649   2653   1
  2643   2643   2648   1
  2644   2654   2655   1
  2645   2654   2656   1
  2646   2654   2657   1
  2647   2655   2658   1
  2648   2655   2659   1
  2649   2649   2654   1
  2650   2660   2661   1
  2651   2660   2662   1
  2652   2660   2663   1
  2653   2661   2664   1
  2654   2661   2665   1
  2655   2655   2660   1
  2656   2666   2667   1
  2657   2666   2668   1
  2658   2666   2669   1
  2659   2667   2670   1
  2660   2667   2671   1
  2661   2661   2666   1
  2662   2672   2673   1
  2663   2672   2674   1
  2664   2672   2675   1
  2665   2673   2676   1
  2666   2673   2677   1
  2667   2667   2672   1
  2668   2678   2679   1
  2669   2678   2680   1
  2670   2678   2681   1
  2671   2679   2682   1
  2672   2679   2683   1
  2673   2673   2678   1
  2674   2684   2685   1
  2675   2684   2686   1
  2676   2684   2687   1
  2677   2685   2688   1
  2678   2685   2689   1
  2679   2679   2684   1
  2680   2690   2691   1
  2681   2690   2692   1
  2682   2690   2693   1
  2683   2691   2694   1
  2684   2691   2695   1
  2685   2685   2690   1
  2686   2696   2697   1
  2687   2696   2698   1
  2688   2696   2699   1
  2689   2697   2700   1
  2690   2697   2701   1
  2691   2691   2696   1
  2692   2702   2703   1
  2693   2702   2704   1
  2694   2702   2705   1
  2695   2703   2706   1
  2696   2703   2707   1
  2697   2697   2702   1
  2698   2708   2709   1
  2699   2708   2710   1
  2700   2708   2711   1
  2701   2709   2712   1
  2702   2709   2713   1
  2703   2703   2708   1
  2704   2714   2715   1
  2705   2714   2716   1
  2706   2714   2717   1
  2707   2715   2718   1
  2708   2715   2719   1
  2709   2709   2714   1
  2710   2720   2721   1
  2711   2720   2722   1
  2712   2720   2723   1
  2713   2721   2724   1
  2714   2721   2725   1
  2715   2715   2720   1
  2716   2726   2727   1
  2717   2726   2728   1
  2718   2726   2729   1
  2719   2727   2730   1
  2720   2727   2731   1
  2721   2721   2726   1
  2722   2732   2733   1
  2723   2732   2734   1
  2724   2732   2735   1
  2725   2733   2736   1
  2726   2733   2737   1
  2727   2727   2732   1
  2728   2738   2739   1
  2729   2738   2740   1
  2730   2738   2741   1
  2731   2739   2742   1
  2732   2739   2743   1
  2733   2733   2738   1
  2734   2744   2745   1
  2735   2744   2746   1
  2736   2744   2747   1
  2737   2745   2748   1
  2738   2745   2749   1
  2739   2739   2744   1
  2740   2750   2751   1
  2741   2750   2752   1
  2742   2750   2753   1
  2743   2751   2754   1
  2744   2751   2755   1
  2745   2745   2750   1
  2746   2756   2757   1
  2747   2756   2758   1
  2748   2756   2759   1
  2749   2757   2760   1
  2750   2757   2761   1
  2751   2751   2756   1
  2752   2762   2763   1
  2753   2762   2764   1
  2754   2762   2765   1
  2755   2763   2766   1
  2756   2763   2767   1
  2757   2757   2762   1
  2758   2768   2769   1
  2759   2768   2770   1
  2760   2768   2771   1
  2761   2769   2772   1
  2762   2769   2773   1
  2763   2763   2768   1
  2764   2774   2775   1
  2765   2774   2776   1
  2766   2774   2777   1
  2767   2775   2778   1
  2768   2775   2779   1
  2769   2769   2774   1
  2770   2780   2781   1
  2771   2780   2782   1
  2772   2780   2783   1
  2773   2781   2784   1
  2774   2781   2785   1
  2775   2775   2780   1
  2776   2786   2787   1
  2777   2786   2788   1
  2778   2786   2789   1
  2779   2787   2790   1
  2780   2787   2791   1
  2781   2781   2786   1
  2782   2792   2793   1
  2783   2792   2794   1
  2784   2792   2795   1
  2785   2793   2796   1
  2786   2793   2797   1
  2787   2787   2792   1
  2788   2798   2799   1
  2789   2798   2800   1
  2790   2798   2801   1
  2791   2799   2802   1
  2792   2799   2803   1
  2793   2793   2798   1
  2794   2804   2805   1
  2795   2804   2806   1
  2796   2804   2807   1
  2797   2805   2808   1
  2798   2805   2809   1
  2799   2799   2804   1
  2800   2810   2811   1
  2801   2810   2812   1
  2802   2810   2813   1
  2803   2811   2814   1
  2804   2811   2815   1
  2805   2805   2810   1
  2806   2816   2817   1
  2807   2816   2818   1
  2808   2816   2819   1
  2809   2817   2820   1
  2810   2817   2821   1
  2811   2811   2816   1
  2812   2822   2823   1
  2813   2822   2824   1
  2814   2822   2825   1
  2815   2823   2826   1
  2816   2823   2827   1
  2817   2817   2822   1
  2818   2828   2829   1
  2819   2828   2830   1
  2820   2828   2831   1
  2821   2829   2832   1
  2822   2829   2833   1
  2823   2823   2828   1
  2824   2834   2835   1
  2825   2834   2836   1
  2826   2834   2837   1
  2827   2835   2838   1
  2828   2835   2839   1
  2829   2829   2834   1
  2830   2840   2841   1
  2831   2840   2842   1
  2832   2840   2843   1
  2833   2841   2844   1
  2834   2841   2845   1
  2835   2835   2840   1
  2836   2846   2847   1
  2837   2846   2848   1
  2838   2846   2849   1
  2839   2847   2850   1
  2840   2847   2851   1
  2841   2841   2846   1
  2842   2852   2853   1
  2843   2852   2854   1
  2844   2852   2855   1
  2845   2853   2856   1
  2846   2853   2857   1
  2847   2847   2852   1
  2848   2858   2859   1
  2849   2858   2860   1
  2850   2858   2861   1
  2851   2859   2862   1
  2852   2859   2863   1
  2853   2853   2858   1
  2854   2864   2865   1
  2855   2864   2866   1
  2856   2864   2867   1
  2857   2865   2868   1
  2858   2865   2869   1
  2859   2859   2864   1
  2860   2870   2871   1
  2861   2870   2872   1
  2862   2870   2873   1
  2863   2871   2874   1
  2864   2871   2875   1
  2865   2865   2870   1
  2866   2876   2877   1
  2867   2876   2878   1
  2868   2876   2879   1
  2869   2877   2880   1
  2870   2877   2881   1
  2871   2871   2876   1
  2872   2882   2883   1
  2873   2882   2884   1
  2874   2882   2885   1
  2875   2883   2886   1
  2876   2883   2887   1
  2877   2877   2882   1
  2878   2888   2889   1
  2879   2888   2890   1
  2880   2888   2891   1
  2881   2889   2892   1
  2882   2889   2893   1
  2883   2883   2888   1
  2884   2894   2895   1
  2885   2894   2896   1
  2886   2894   2897   1
  2887   2895   2898   1
  2888   2895   2899   1
  2889   2889   2894   1
  2890   2900   2901   1
  2891   2900   2902   1
  2892   2900   2903   1
  2893   2901   2904   1
  2894   2901   2905   1
  2895   2895   2900   1
  2896   2906   2907   1
  2897   2906   2908   1
  2898   2906   2909   1
  2899   2907   2910   1
  2900   2907   2911   1
  2901   2901   2906   1
  2902   2912   2913   1
  2903   2912   2914   1
  2904   2912   2915   1
  2905   2913   2916   1
  2906   2913   2917   1
  2907   2907   2912   1
  2908   2918   2919   1
  2909   2918   2920   1
  2910   2918   2921   1
  2911   2919   2922   1
  2912   2919   2923   1
  2913   2913   2918   1
  2914   2924   2925   1
  2915   2924   2926   1
  2916   2924   2927   1
  2917   2925   2928   1
  2918   2925   2929   1
  2919   2919   2924   1
  2920   2930   2931   1
  2921   2930   2932   1
  2922   2930   2933   1
  2923   2931   2934   1
  2924   2931   2935   1
  2925   2925   2930   1
  2926   2936   2937   1
  2927   2936   2938   1
  2928   2936   2939   1
  2929   2937   2940   1
  2930   2937   2941   1
  2931   2931   2936   1
  2932   2942   2943   1
  2933   2942   2944   1
  2934   2942   2945   1
  2935   2943   2946   1
  2936   2943   2947   1
  2937   2937   2942   1
  2938   2948   2949   1
  2939   2948   2950   1
  2940   2948   2951   1
  2941   2949   2952   1
  2942   2949   2953   1
  2943   2943   2948   1
  2944   2954   2955   1
  2945   2954   2956   1
  2946   2954   2957   1
  2947   2955   2958   1
  2948   2955   2959   1
  2949   2949   2954   1
  2950   2960   2961   1
  2951   2960   2962   1
  2952   2960   2963   1
  2953   2961   2964   1
  2954   2961   2965   1
  2955   2955   2960   1
  2956   2966   2967   1
  2957   2966   2968   1
  2958   2966   2969   1
  2959   2967   2970   1
  2960   2967   2971   1
  2961   2961   2966   1
  2962   2972   2973   1
  2963   2972   2974   1
  2964   2972   2975   1
  2965   2973   2976   1
  2966   2973   2977   1
  2967   2967   2972   1
  2968   2978   2979   1
  2969   2978   2980   1
  2970   2978   2981   1
  2971   2979   2982   1
  2972   2979   2983   1
  2973   2973   2978   1
  2974   2984   2985   1
  2975   2984   2986   1
  2976   2984   2987   1
  2977   2985   2988   1
  2978   2985   2989   1
  2979   2979   2984   1
  2980   2990   2991   1
  2981   2990   2992   1
  2982   2990   2993   1
  2983   2991   2994   1
  2984   2991   2995   1
  2985   2985   2990   1
  2986   2996   2997   1
  2987   2996   2998   1
  2988   2996   2999   1
  2989   2997   3000   1
  2990   2997   3001   1
  2991   2991   2996   1
  2992   3002   3003   1
  2993   3002   3004   1
  2994   3002   3005   1
  2995   3003   3006   1
  2996   3003   3007   1
  2997   2997   3002   1
  2998   3008   3009   1
  2999   3008   3010   1
  3000   3008   3011   1
  3001   3009   3012   1
  3002   3009   3013   1
  3003   3003   3008   1
  3004   3014   3015   1
  3005   3015   3016   1
  3006   3014   3017   1
  3007   3014   3018   1
  3008   3015   3019   1
  3009   3015   3020   1
  3010   3009   3014   1
@<TRIPOS>CRYSIN
   61.5572    61.5572    61.5572    90.0000    90.0000    90.0000 1 1
